24
101355_b3lyp_prop_0.log	Energy: -408477.1012849
O          3.18575       -0.84694       -0.12329
O          2.07857        1.75996       -0.21268
O         -1.18749       -2.43567       -0.04902
C         -0.14366        1.00415       -0.03011
C          1.32669        0.80318       -0.10272
C          1.86740       -0.60174       -0.06222
C         -0.98435       -0.06525       -0.01594
C          1.01552       -1.64852       -0.06889
C         -0.43441       -1.47575       -0.05103
C         -0.60070        2.43157       -0.00818
C          4.18557        0.07439        0.36002
H          1.38671       -2.66587       -0.07984
H         -0.25007        2.95850       -0.90008
H         -0.17038        2.95960        0.84774
H         -1.68629        2.49289        0.04183
H          5.07571       -0.53875        0.49374
H          3.88944        0.51055        1.31500
H          4.36960        0.86643       -0.36229
C         -2.39513        0.05371        0.03005
C         -3.60084        0.11111        0.06640
C         -5.05295        0.15947        0.10941
H         -5.40161        0.66188        1.01677
H         -5.45231        0.70717       -0.74951
H         -5.47428       -0.84929        0.09578
