22
10154120_b3lyp_prop_1.log	Energy: -384390.0130245
C          5.52512        0.26092        0.00009
C          4.07209        0.24383        0.00006
C          2.86512        0.22073        0.00004
C          1.45088        0.16295       -0.00001
C          0.66494        1.26473       -0.00005
C         -0.80582        1.20368       -0.00006
O         -1.47634        2.22068       -0.00005
C         -1.45088       -0.16309       -0.00005
C         -0.66493       -1.26486       -0.00006
C          0.80583       -1.20378       -0.00004
O          1.47635       -2.22079       -0.00005
H          5.90874        0.77836       -0.88428
H          5.92572       -0.75625        0.00128
H          5.90871        0.78046        0.88323
H         -1.08811       -2.26237       -0.00008
H          1.08814        2.26224       -0.00005
C         -2.86513       -0.22080       -0.00002
C         -4.07210       -0.24374        0.00003
C         -5.52513       -0.26060        0.00013
H         -5.90878       -0.77890        0.88396
H         -5.92554        0.75665       -0.00002
H         -5.90886       -0.77911       -0.88357
