22
10154120_b3lyp_prop_0.log	Energy: -384389.6084597
C          3.08110        2.95567       -0.00166
C          1.88460        2.13154       -0.00098
C          0.88734        1.45050       -0.00016
C         -0.30058        0.68677        0.00007
C         -0.30238       -0.68721       -0.00019
C         -1.59810       -1.44603       -0.00120
O         -1.62677       -2.66346       -0.00305
C         -2.85815       -0.66497        0.00032
C         -2.85642        0.67148        0.00122
C         -1.59428        1.44913        0.00094
O         -1.61955        2.66663        0.00178
H          3.68081        2.77237        0.89509
H          2.82328        4.01783       -0.02785
H          3.70666        2.73453       -0.87179
H         -3.77013       -1.25167        0.00029
H         -3.76687        1.26052        0.00211
C          0.88380       -1.45361       -0.00055
C          1.88081       -2.13500        0.00004
C          3.07663       -2.96005        0.00132
H          3.39564       -3.17624        1.02578
H          2.89157       -3.91438       -0.49965
H          3.90331       -2.45759       -0.50887
