22
102182508_b3lyp_1.log	Energy: -418399.9622135
C          3.04083       -0.75856        0.73332
C          1.96859       -0.09479        1.18926
C          1.17018        0.45037       -0.00000
C          1.96857       -0.09479       -1.18928
C          3.04083       -0.75855       -0.73335
C         -0.31214        0.06018        0.00002
C         -1.30720        0.96542        0.00005
C         -2.74225        0.58610        0.00020
O         -3.61467        1.43802       -0.00009
C         -3.07046       -0.85800       -0.00003
C         -2.09590       -1.77391       -0.00005
C         -0.65665       -1.40324       -0.00000
O          0.19546       -2.27137        0.00005
H          3.79708       -1.23047        1.34629
H          1.68264        0.09960       -2.21268
H          3.79707       -1.23045       -1.34633
H         -1.11620        2.03304        0.00002
H         -4.12361       -1.11579       -0.00011
H         -2.29172       -2.84046       -0.00014
H          1.68266        0.09960        2.21267
C          1.31827        1.91460       -0.00001
N          1.42712        3.06325       -0.00001
