22
102182508_b3lyp_6.log	Energy: -418403.8686677
C         -3.55212        0.47901        0.73271
C         -2.52114       -0.25903        1.18252
C         -1.79065       -0.86353       -0.00011
C         -2.52125       -0.25876       -1.18252
C         -3.55219        0.47916       -0.73245
C         -0.28646       -0.72885       -0.00010
C          0.52495       -1.80427       -0.00008
C          1.99715       -1.70824       -0.00001
O          2.70650       -2.70113        0.00003
C          2.59860       -0.35282        0.00004
C          1.82019        0.74471        0.00001
C          0.31406        0.64583       -0.00010
O         -0.36025        1.65117       -0.00010
H         -4.27741        0.99666        1.34675
H         -2.25034       -0.45305        2.21109
H         -2.00987       -1.94215       -0.00022
H         -2.25056       -0.45255       -2.21116
H         -4.27755        0.99694       -1.34629
H          0.12968       -2.81479       -0.00009
H          3.68106       -0.29962        0.00010
C          2.38221        2.05891        0.00005
N          2.85785        3.11079        0.00009
