23
102160488_b3lyp_prop_2.log	Energy: -431642.3105945
C         -1.78862       -2.03853       -0.00004
C         -3.19307       -1.40756        0.00033
C         -2.98277        0.11582       -0.00008
O         -3.85372        0.94756       -0.00045
C         -1.49783        0.33613        0.00003
C         -0.86305       -0.85327        0.00003
C          0.61879       -0.97332       -0.00001
O          1.16097       -2.06047       -0.00008
C          1.39657        0.31914        0.00002
C          0.73301        1.50138        0.00007
C         -0.74487        1.61705        0.00009
O         -1.28218        2.70960        0.00016
H         -1.59774       -2.66878       -0.87339
H         -3.78465       -1.67895       -0.87703
H          1.26952        2.44310        0.00012
H         -1.59739       -2.66927        0.87286
H         -3.78376       -1.67842        0.87848
C          2.80987        0.22506       -0.00001
C          4.01198        0.11603       -0.00004
C          5.45893       -0.01856       -0.00004
H          5.89402        0.45688        0.88397
H          5.75180       -1.07179       -0.00040
H          5.89411        0.45754       -0.88366
