23
102160488_b3lyp_prop_0.log	Energy: -431635.0414753
C         -1.07984        0.54670       -0.97396
C         -0.54990        2.00347       -0.87057
C          0.82438        1.92024       -0.19404
O          1.51088        2.85774        0.12042
C          1.13173        0.46014       -0.03129
C          0.10035       -0.27943       -0.48379
C          0.14895       -1.76778       -0.52443
O         -0.72940       -2.42664       -1.05058
C          1.35273       -2.39516        0.07478
C          2.36575       -1.66035        0.55514
C          2.35634       -0.16786        0.53369
O          3.30092        0.46562        0.96034
H         -1.29469        0.27362       -2.01321
H         -0.42268        2.46016       -1.85559
H         -1.20747        2.65083       -0.29054
H          1.36809       -3.47961        0.07777
H          3.25670       -2.11001        0.98004
C         -2.27748        0.29818       -0.16944
C         -3.25935        0.11075        0.50130
C         -4.45300       -0.13133        1.30152
H         -4.50275        0.55149        2.15429
H         -5.35850        0.00886        0.70448
H         -4.46190       -1.15447        1.68783
