26
102182508_b3lyp_prop_2.log	Energy: -432979.7458431
C          2.21858       -2.18109        0.73363
C          1.51376       -1.13330        1.18551
C          1.01200       -0.30100       -0.00002
C          1.51388       -1.13330       -1.18550
C          2.21867       -2.18109       -0.73354
C         -0.51175       -0.10923       -0.00005
C         -1.08395        1.10910       -0.00001
C         -2.54880        1.32306        0.00008
O         -3.02169        2.44934       -0.00008
C         -3.41690        0.12314        0.00006
C         -2.87499       -1.09919        0.00004
C         -1.40263       -1.32054       -0.00012
O         -0.96826       -2.45716       -0.00005
H          1.33513       -0.83955       -2.20997
H          2.71772       -2.91975       -1.34712
H         -0.48340        2.01097       -0.00002
H         -4.48735        0.29622        0.00011
H         -3.47028       -2.00577        0.00007
H          2.71756       -2.91976        1.34726
H          1.33490       -0.83954        2.20997
C          1.72236        0.98636       -0.00000
C          2.32309        2.03050        0.00002
C          3.06203        3.28697        0.00002
H          3.70118        3.36655        0.88407
H          3.70017        3.36718       -0.88470
H          2.38176        4.14359        0.00072
