22
102182508_b3lyp_4.log	Energy: -418403.9853135
C         -3.43743       -0.17066        0.73188
C         -2.19669       -0.43120        1.18308
C         -1.28708       -0.69840       -0.00003
C         -2.19678       -0.43131       -1.18309
C         -3.43749       -0.17074       -0.73182
C          0.02979        0.03371       -0.00008
C          1.22960       -0.60662       -0.00003
C          2.54082        0.12591        0.00001
O          3.59768       -0.47380       -0.00003
C          2.48861        1.60330        0.00003
C          1.32123        2.25469       -0.00001
C          0.02114        1.54102       -0.00024
O         -1.02048        2.16697        0.00013
H         -4.31039        0.00579        1.34654
H          3.44765        2.10875        0.00012
H          1.25336        3.33684        0.00006
H         -1.87132       -0.50577        2.21123
H         -1.06828       -1.77582        0.00001
H         -1.87149       -0.50597       -2.21126
H         -4.31050        0.00564       -1.34643
C          1.32281       -2.03393       -0.00003
N          1.38888       -3.18708        0.00014
