19
102160488_b3lyp_1.log	Energy: -417056.4040187
C          1.33638       -2.02931       -0.00051
C          2.73062       -1.37527        0.00148
C          2.49716        0.14335       -0.00028
O          3.34817        0.99361       -0.00166
C          1.00595        0.33985        0.00008
C          0.39069       -0.86083       -0.00011
C         -1.08734       -1.00550       -0.00010
O         -1.62915       -2.09044        0.00005
C         -1.87011        0.27914       -0.00003
C         -1.24625        1.47484        0.00019
C          0.24185        1.60932        0.00036
O          0.74977        2.71195        0.00072
H          1.15612       -2.66140       -0.87483
H          1.15432       -2.66413        0.87139
H          3.32347       -1.63651        0.88099
H         -1.79913        2.40742        0.00032
H          3.32789       -1.63867       -0.87430
C         -3.29545        0.17739       -0.00015
N         -4.44771        0.10777       -0.00029
