23
10419488_b3lyp_prop_1.log	Energy: -431640.3089975
C          2.24242        2.93698        0.00004
C          1.85073        1.49039       -0.00000
C          2.74559        0.48306        0.00001
C          2.38684       -0.96006        0.00002
O          3.22692       -1.84341        0.00009
C          0.94139       -1.19374       -0.00002
C         -0.01589       -0.21629        0.00000
C          0.36460        1.20655       -0.00005
O         -0.44428        2.11603       -0.00015
C         -1.29020       -0.89226       -0.00002
C         -0.96911       -2.22854       -0.00005
O          0.37539       -2.41998       -0.00006
H          1.82939        3.44688        0.87480
H          1.82881        3.44712       -0.87429
H          3.32697        3.04962       -0.00028
H         -1.57651       -3.11765       -0.00007
H          3.81296        0.67871        0.00004
C         -2.59104       -0.33803        0.00002
C         -3.69927        0.13710        0.00003
C         -5.02410        0.73725        0.00008
H         -5.59297        0.43604        0.88469
H         -4.95123        1.82840       -0.00032
H         -5.59333        0.43541       -0.88408
