20
10986586_b3lyp_prop_1.log	Energy: -609639.3286320
C         -0.78538        1.61632        0.00005
C         -1.30857        0.36534       -0.00003
C         -0.40175       -0.85407       -0.00018
O         -0.84841       -1.98497       -0.00042
C          1.03262       -0.55480       -0.00000
C          1.56318        0.71875        0.00002
C          0.66605        1.89655       -0.00005
O          1.09150        3.04211       -0.00016
C          2.98348        0.72917        0.00012
C          3.49852       -0.53866        0.00020
S          2.27335       -1.76308        0.00009
H          3.57577        1.63334        0.00014
H          4.53798       -0.83131        0.00031
H         -1.42862        2.48839        0.00012
C         -2.70297        0.11974       -0.00008
C         -3.88732       -0.11389       -0.00013
C         -5.31161       -0.40212        0.00007
H         -5.78128       -0.04125        0.92005
H         -5.80901        0.08705       -0.84265
H         -5.49072       -1.47798       -0.07448
