16
10986586_b3lyp_1.log	Energy: -595054.0891120
C          1.22077        2.25926       -0.00001
C          2.29635        1.45937       -0.00007
C          2.18503       -0.02414       -0.00006
O          3.16608       -0.74711        0.00000
C          0.80640       -0.54180        0.00000
C         -0.31495        0.25780        0.00008
C         -0.17465        1.73606        0.00020
O         -1.13120        2.48649       -0.00005
C         -1.52609       -0.50713       -0.00000
C         -1.26854       -1.86168       -0.00011
S          0.41138       -2.22721        0.00005
H          1.30603        3.34024       -0.00007
H         -1.99891       -2.65679       -0.00019
H          3.30842        1.84874       -0.00015
C         -2.85485        0.00711       -0.00001
N         -3.95621        0.35414       -0.00002
