24
11029986_b3lyp_prop_2.log	Energy: -385169.0628984
C         -4.03204       -1.70741        0.96110
C         -2.84408       -1.71548        0.36271
C         -2.46897       -0.81418       -0.79145
C         -1.32064        0.11054       -0.46211
C         -1.47362        1.42833       -0.25038
C         -0.34075        2.31797        0.08599
O         -0.51209        3.51541        0.27137
C          0.99917        1.71447        0.19255
C          1.20807        0.39420       -0.01658
C          0.04430       -0.49993       -0.37660
O          0.21122       -1.68376       -0.59872
H         -4.82454       -1.03151        0.65343
H         -4.25686       -2.38296        1.77865
H         -2.07358       -2.40721        0.69086
H         -2.17581       -1.43783       -1.64337
H         -3.33323       -0.21660       -1.09066
H         -2.44395        1.91048       -0.31204
H          1.81025        2.38612        0.44764
C          2.48470       -0.21218        0.08024
C          3.56376       -0.74693        0.16176
C          4.86003       -1.39696        0.25894
H          5.57367       -0.95039       -0.43978
H          5.27210       -1.29507        1.26736
H          4.77935       -2.46283        0.02975
