18
11040862_b3lyp_1.log	Energy: -393136.1075186
C          3.49764       -0.58534        0.51547
C          2.55616        0.45450       -0.03210
O          2.94299        1.52877       -0.43763
C          1.05503        0.18316       -0.03742
C          0.22263        1.23861        0.02611
C         -1.25305        1.11698        0.05725
O         -1.97012        2.09295        0.12629
C         -1.81766       -0.27397       -0.00019
C         -0.99427       -1.33578       -0.08340
C          0.48536       -1.19422       -0.12052
O          1.17507       -2.19186       -0.23931
H          3.55028       -1.43607       -0.16772
H          3.13939       -0.97903        1.47058
H          4.48257       -0.13603        0.63424
H         -1.36611       -2.35247       -0.13747
H          0.61457        2.24939        0.06063
C         -3.23787       -0.42052        0.03147
N         -4.38400       -0.55503        0.05786
