16
11122_b3lyp_2.log	Energy: -322007.8694880
C         -1.90729        2.24486        0.00005
C         -1.19674        0.92701       -0.00000
C         -1.82254       -0.26433       -0.00000
C         -1.09677       -1.54859       -0.00005
O         -1.68040       -2.62000       -0.00002
C          0.38773       -1.50472        0.00002
C          1.04538       -0.33034        0.00002
C          0.29951        0.97753        0.00004
O          0.89918        2.03245       -0.00013
H         -1.62220        2.83487        0.87538
H         -2.98843        2.10510       -0.00063
H         -1.62111        2.83557       -0.87444
H         -2.90477       -0.34112       -0.00001
H          0.90123       -2.45912        0.00004
C          2.47315       -0.26880        0.00002
N          3.62721       -0.23868        0.00003
