20
11122_b3lyp_prop_2.log	Energy: -336593.0299048
C          2.43369       -2.23851       -0.00002
C          1.72054       -0.92065        0.00006
C          2.34517        0.26939        0.00007
C          1.61259        1.55388        0.00000
O          2.21056        2.62185       -0.00001
C          0.13973        1.50640       -0.00003
C         -0.53833        0.33567       -0.00003
C          0.22288       -0.97006        0.00003
O         -0.36205       -2.03551       -0.00000
H          2.14923       -2.83073        0.87401
H          3.51491       -2.09630        0.00132
H          2.15137       -2.82938       -0.87569
H          3.42751        0.34908        0.00014
H         -0.37216        2.46141       -0.00007
C         -1.95298        0.25986       -0.00006
C         -3.15684        0.17241       -0.00004
C         -4.60577        0.05893        0.00004
H         -5.03453        0.54056        0.88389
H         -5.03467        0.54081       -0.88359
H         -4.91387       -0.99002       -0.00005
