21
11309532_b3lyp_prop_1.log	Energy: -360494.4891681
C          4.34380       -0.23011        0.00039
C          3.32954        0.64518        0.00003
C          1.89228        0.37230       -0.00004
C          1.01722        1.40586       -0.00008
C         -0.44727        1.25883       -0.00005
O         -1.17747        2.23383       -0.00011
C         -1.00284       -0.14388       -0.00003
C         -0.13829       -1.18383       -0.00004
C          1.32821       -1.02514       -0.00011
O          2.03947       -2.01837       -0.00029
H          4.18619       -1.29843        0.00060
H          5.36462        0.13528        0.00045
H          3.56672        1.70691       -0.00018
H         -0.48649       -2.20995       -0.00004
H          1.36563        2.43379       -0.00008
C         -2.40927       -0.29986        0.00002
C         -3.61174       -0.40684        0.00008
C         -5.05987       -0.52703        0.00018
H         -5.40511       -1.07717        0.88062
H         -5.53207        0.45892        0.00662
H         -5.40602       -1.06589       -0.88686
