17
11309532_b3lyp_1.log	Energy: -345909.2753226
C         -2.87834        1.46329        0.00032
C         -1.53596        1.44847        0.00000
C         -0.64806        0.29172       -0.00003
C          0.71305        0.45872        0.00000
C          1.68021       -0.68228        0.00032
O          2.88191       -0.49461       -0.00017
C          1.11345       -2.04752        0.00020
C         -0.20794       -2.24471        0.00015
C         -1.17851       -1.12423       -0.00023
O         -2.37085       -1.36959       -0.00039
H         -3.47612        0.56470        0.00051
H         -3.39355        2.41718        0.00035
H          1.83237       -2.85883        0.00028
H         -0.65388       -3.23292        0.00018
H         -1.01900        2.40307       -0.00018
C          1.30622        1.75800       -0.00005
N          1.77671        2.81309       -0.00011
