21
11355645_b3lyp_prop_2.log	Energy: -428476.8875947
C          3.45008        0.15157        0.00055
C          2.96848        1.40253        0.00038
C          1.51560        1.70207       -0.00020
O          1.10969        2.84449       -0.00038
C          0.58157        0.51396       -0.00023
N         -0.72876        0.76359       -0.00037
C         -1.54712       -0.29463       -0.00044
C         -1.02262       -1.61228       -0.00059
N          0.27425       -1.85576       -0.00047
C          1.09098       -0.79274       -0.00019
C          2.57340       -1.04612        0.00036
O          3.04229       -2.16552        0.00045
H         -1.69470       -2.46485       -0.00090
H          4.51494       -0.05575        0.00090
H          3.61862        2.27037        0.00057
C         -2.95472       -0.08359       -0.00022
C         -4.15261        0.06060       -0.00028
C         -5.59280        0.25592        0.00043
H         -6.02192       -0.03229        0.96464
H         -5.84313        1.30394       -0.18338
H         -6.06949       -0.35180       -0.77389
