21
11355645_b3lyp_prop_0.log	Energy: -428476.7344943
C          1.30044        0.30868       -0.00000
C          0.73321        1.54058        0.00004
C         -0.71915        1.77782        0.00002
O         -1.17311        2.90545        0.00002
C         -1.60864        0.56097       -0.00001
N         -2.93215        0.75272       -0.00002
C         -3.68749       -0.33813       -0.00003
C         -3.13110       -1.62510       -0.00001
N         -1.81915       -1.82149        0.00000
C         -1.05190       -0.72559        0.00000
C          0.44266       -0.93342        0.00002
O          0.93045       -2.03855        0.00006
H          1.34643        2.43417        0.00006
H         -4.76435       -0.19677       -0.00006
H         -3.76542       -2.50668       -0.00001
C          2.70291        0.11703       -0.00004
C          3.89570       -0.06867       -0.00007
C          5.33010       -0.29915       -0.00006
H          5.79341        0.13585        0.89048
H          5.55234       -1.36934       -0.01327
H          5.79743        0.15881       -0.87684
