17
11355645_b3lyp_0.log	Energy: -413890.4274802
C         -1.33651        1.40812        0.00006
C         -1.78340        0.13582        0.00002
C         -0.84591       -1.04170       -0.00010
O         -1.26333       -2.17359       -0.00019
C          0.62508       -0.71681       -0.00004
N          1.47439       -1.75021        0.00001
C          2.76636       -1.45331        0.00009
C          3.22249       -0.12537        0.00011
N          2.38546        0.90271        0.00005
C          1.08043        0.60875       -0.00003
C          0.10615        1.75503       -0.00005
O          0.45881        2.91425       -0.00013
H         -2.01847        2.25073        0.00015
H          3.46666       -2.28315        0.00010
H          4.28498        0.09863        0.00011
C         -3.18321       -0.15368        0.00009
N         -4.31784       -0.36573        0.00014
