22
11805258_b3lyp_0.log	Energy: -441737.4143421
C          2.98775        1.40535        0.00003
C          1.64362        0.75293       -0.00002
C          1.44436       -0.59215       -0.00002
C          0.07651       -1.23820       -0.00004
O         -0.05041       -2.44637       -0.00013
C         -1.05228       -0.30143       -0.00002
C         -0.83482        1.05144       -0.00003
C          0.46506        1.70558       -0.00009
O          0.63158        2.91108        0.00009
O         -2.00610        1.71773       -0.00006
C         -2.98631        0.76772       -0.00001
C         -2.47312       -0.49977        0.00002
C         -3.22898       -1.79031        0.00012
H          3.08539        2.05678       -0.87317
H          3.79487        0.67525        0.00001
H          3.08537        2.05670        0.87330
H         -3.99613        1.14394       -0.00001
H         -2.97665       -2.39041        0.87748
H         -4.30545       -1.61013       -0.00038
H         -2.97591       -2.39098       -0.87664
C          2.54855       -1.50062        0.00002
N          3.44940       -2.22343        0.00007
