22
11805258_b3lyp_1.log	Energy: -441738.2525140
C         -3.99008       -0.71104       -0.00018
C         -2.58885       -0.18143       -0.00009
C         -2.29016        1.13359        0.00003
C         -0.90830        1.68342        0.00044
O         -0.69688        2.88455       -0.00026
C          0.16999        0.67704        0.00022
C         -0.13893       -0.65732       -0.00004
C         -1.49514       -1.22024       -0.00033
O         -1.73141       -2.41257        0.00039
O          0.97344       -1.41173        0.00003
C          2.02657       -0.52823       -0.00003
C          1.59720        0.77960        0.00002
C          2.43890        2.01228        0.00008
H         -4.16048       -1.34482       -0.87489
H         -4.71646        0.10173       -0.00013
H         -4.16056       -1.34499        0.87440
H          2.21940        2.62561        0.87717
H          3.50072        1.76307       -0.00071
H          2.21823        2.62651       -0.87606
H         -3.07309        1.88489       -0.00003
C          3.33082       -1.06911       -0.00011
N          4.41412       -1.47219       -0.00016
