26
11805258_b3lyp_prop_0.log	Energy: -456320.6517542
C         -1.86146        2.51863        0.00001
C         -0.84622        1.41752        0.00000
C         -1.17043        0.09071       -0.00000
C         -0.11410       -1.00244        0.00001
O         -0.41701       -2.18061       -0.00001
C          1.27950       -0.54074        0.00000
C          1.56628        0.79639       -0.00002
C          0.58341        1.87580       -0.00002
O          0.87868        3.05981        0.00003
O          2.89941        0.99631       -0.00001
C          3.47130       -0.24518       -0.00003
C          2.53454       -1.23951        0.00002
C          2.77291       -2.71629        0.00003
H         -1.72278        3.16194        0.87387
H         -2.87504        2.12277        0.00010
H         -1.72291        3.16184       -0.87394
H          4.54877       -0.25899       -0.00003
H          2.32047       -3.18506       -0.87704
H          3.84197       -2.93793        0.00066
H          2.31936       -3.18522        0.87643
C         -2.51253       -0.37061       -0.00001
C         -3.63826       -0.80711       -0.00001
C         -4.98877       -1.34590       -0.00000
H         -5.54180       -1.01883        0.88567
H         -5.54418       -1.01302       -0.88202
H         -4.96948       -2.43912       -0.00361
