26
11805258_b3lyp_prop_1.log	Energy: -456323.6948394
C         -4.27319       -1.27696        0.00028
C         -2.97955       -0.52098        0.00010
C         -2.90662        0.82469        0.00014
C         -1.63332        1.59432        0.00001
O         -1.62760        2.81553        0.00006
C         -0.40482        0.78095       -0.00016
C         -0.48979       -0.58834       -0.00024
C         -1.72520       -1.36486       -0.00011
O         -1.77208       -2.58304       -0.00017
O          0.73760       -1.14243       -0.00024
C          1.63889       -0.09854       -0.00010
C          0.98240        1.11721       -0.00005
C          1.60631        2.47417       -0.00005
H         -4.33565       -1.93079       -0.87407
H         -5.12532       -0.59667        0.00039
H         -4.33541       -1.93076        0.87467
H          1.29020        3.04784        0.87487
H          2.69453        2.39759        0.00315
H          1.29540        3.04546       -0.87843
H         -3.80390        1.43515        0.00028
C          3.00653       -0.41827       -0.00001
C          4.18607       -0.67726        0.00025
C          5.60346       -0.99970        0.00039
H          6.07489       -0.70591        0.94294
H          5.75134       -2.07522       -0.13038
H          6.12352       -0.48583       -0.81334
