19
12078641_b3lyp_0.log	Energy: -417056.8422312
C         -1.80261        2.21246        0.00059
C         -1.13803        0.87608        0.00028
C         -1.74363       -0.35949       -0.00029
O         -0.82289       -1.38035        0.00038
C          0.38242       -0.78895        0.00010
C          0.26209        0.57761        0.00008
C          1.46183        1.43525        0.00001
O          1.41590        2.65240       -0.00035
C          2.76399        0.70207       -0.00029
C          2.84850       -0.63730       -0.00020
C          1.65181       -1.53059        0.00010
O          1.73924       -2.74269        0.00028
H         -2.88848        2.11052        0.00039
H         -1.50135        2.79080       -0.87603
H         -1.50163        2.79034        0.87761
H          3.64721        1.33132       -0.00051
H          3.80281       -1.15230       -0.00033
C         -3.11038       -0.71382       -0.00052
N         -4.23893       -0.96364       -0.00039
