23
12078641_b3lyp_prop_0.log	Energy: -431642.5938216
C         -0.99094        2.49123       -0.00000
C         -0.52366        1.07275       -0.00001
C         -1.31239       -0.06100       -0.00004
O         -0.53346       -1.19973       -0.00001
C          0.74752       -0.78899       -0.00001
C          0.81819        0.58326       -0.00001
C          2.12396        1.26479       -0.00000
O          2.25232        2.47782        0.00001
C          3.31274        0.35875        0.00002
C          3.20662       -0.97846        0.00002
C          1.89331       -1.69563       -0.00001
O          1.82261       -2.91248        0.00000
H         -2.08081        2.53730       -0.00020
H         -0.61507        3.02489       -0.87663
H         -0.61541        3.02477        0.87684
H          4.27522        0.85856        0.00005
H          4.07824       -1.62390        0.00004
C         -2.70711       -0.22576       -0.00006
C         -3.90810       -0.35166        0.00006
C         -5.35257       -0.51369        0.00003
H         -5.80045       -0.05231        0.88506
H         -5.80029       -0.05348       -0.88570
H         -5.61867       -1.57429        0.00070
