26
12344381_b3lyp_5.log	Energy: -548107.7660131
C         -4.60923       -0.01579        0.00009
C         -4.25004       -1.36701        0.00007
C         -2.90990       -1.73455        0.00002
C         -1.91416       -0.75247       -0.00002
C         -2.27593        0.60561        0.00000
C         -3.62720        0.96685        0.00005
C         -1.24111        1.66812       -0.00003
O         -1.52919        2.85192       -0.00005
C          0.19898        1.24102       -0.00003
C          1.17251        2.24264       -0.00002
C          2.51555        1.91098        0.00000
C          2.90622        0.56545        0.00002
C          1.93469       -0.46130       -0.00000
C          0.56649       -0.11462       -0.00003
C         -0.48802       -1.18323       -0.00008
O         -0.18349       -2.35981       -0.00017
C          2.40697       -1.81368        0.00002
N          2.92809       -2.84427        0.00006
H         -5.65569        0.26645        0.00013
H         -5.01841       -2.13142        0.00010
H         -2.61164       -2.77543        0.00000
H         -3.88266        2.01912        0.00006
H          0.84973        3.27596       -0.00003
H          3.27697        2.68057        0.00001
C          4.30456        0.26269        0.00005
N          5.44345        0.07335        0.00007
