26
12344381_b3lyp_3.log	Energy: -548106.0884832
C         -4.20446        0.69908       -0.00012
C         -4.20437       -0.69931        0.00012
C         -3.00361       -1.39815        0.00022
C         -1.79056       -0.70172        0.00011
C         -1.79069        0.70169       -0.00014
C         -3.00379        1.39802       -0.00025
C         -0.52020        1.47019       -0.00034
O         -0.51297        2.68632       -0.00043
C          0.77165        0.70335       -0.00013
C          1.99571        1.40442       -0.00022
C          3.20219        0.69231       -0.00008
C          3.20233       -0.69184        0.00017
C          1.99609       -1.40430        0.00027
C          0.77178       -0.70344        0.00013
C         -0.51998       -1.47035        0.00028
O         -0.51278       -2.68643        0.00027
C          2.11008       -2.83396        0.00054
N          2.38933       -3.95500        0.00078
H         -5.14352        1.24026       -0.00020
H          4.13744        1.23749       -0.00016
H          4.13771       -1.23683        0.00028
H         -5.14337       -1.24061        0.00021
H         -2.98111       -2.48068        0.00041
H         -2.98136        2.48056       -0.00044
C          2.10975        2.83406       -0.00048
N          2.38906        3.95506       -0.00067
