30
12344381_b3lyp_prop_1.log	Energy: -562694.7661126
C          2.85875       -1.65458       -0.00035
C          3.03324       -0.25450       -0.00069
C          1.89671        0.56688       -0.00071
C          0.61826        0.01131       -0.00045
C          0.45722       -1.38483       -0.00014
C          1.58946       -2.20763       -0.00013
C         -0.89138       -1.99984        0.00034
O         -1.04607       -3.21024        0.00051
C         -2.07547       -1.08008        0.00035
C         -3.34894       -1.65507        0.00077
C         -4.47969       -0.84965        0.00083
C         -4.34591        0.53490        0.00044
C         -3.07638        1.13004        0.00000
C         -1.92185        0.31735       -0.00004
C         -0.55708        0.93143       -0.00050
O         -0.41297        2.13935       -0.00071
C         -3.05043        2.56453       -0.00040
N         -3.20296        3.70976       -0.00070
H          1.99825        1.64433       -0.00085
H          1.44880       -3.28137        0.00018
H         -3.42340       -2.73528        0.00107
H         -5.46785       -1.29412        0.00118
H         -5.22144        1.17226        0.00047
H          3.73312       -2.29389       -0.00015
C          4.33936        0.31363       -0.00093
C          5.44630        0.79516       -0.00076
C          6.77777        1.38199        0.00118
H          7.13393        1.53532        1.02441
H          7.49410        0.73274       -0.50990
H          6.77807        2.35244       -0.50282
