26
12344381_b3lyp_1.log	Energy: -548106.7337889
C          3.69173       -1.36694       -0.00027
C          3.71467        0.02412       -0.00007
C          2.52195        0.76138        0.00007
C          1.28275        0.08418        0.00003
C          1.27895       -1.32048       -0.00026
C          2.47760       -2.03908       -0.00036
C         -0.00011       -2.08898       -0.00064
O         -0.00021       -3.30724        0.00008
C         -1.27917       -1.32035       -0.00024
C         -2.47785       -2.03889       -0.00033
C         -3.69193       -1.36663       -0.00020
C         -3.71480        0.02443        0.00000
C         -2.52204        0.76153        0.00012
C         -1.28289        0.08427        0.00006
C         -0.00008        0.85286        0.00045
O         -0.00009        2.06687       -0.00029
C         -2.66200        2.18890        0.00040
N         -2.94633        3.30850        0.00069
H          4.62335       -1.91997       -0.00038
H          2.42910       -3.12067       -0.00059
H         -2.42938       -3.12048       -0.00056
H         -4.62362       -1.91957       -0.00031
H         -4.65689        0.55841        0.00010
H          4.65683        0.55798        0.00000
C          2.66227        2.18851        0.00035
N          2.94757        3.30784        0.00058
