30
12344381_b3lyp_prop_3.log	Energy: -562690.1018655
C         -2.86963        2.09321        0.00018
C         -1.93174        3.11602        0.00025
C         -0.57445        2.81635        0.00013
C         -0.15660        1.48558        0.00005
C         -1.09581        0.43272        0.00010
C         -2.48224        0.73924        0.00011
C         -0.62010       -0.97523        0.00033
O         -1.38307       -1.92502        0.00073
C          0.86309       -1.22281        0.00001
C          1.29646       -2.55181       -0.00007
C          2.65308       -2.84484       -0.00016
C          3.58834       -1.81430       -0.00009
C          3.17309       -0.47628       -0.00003
C          1.79342       -0.17331       -0.00002
C          1.31840        1.23890       -0.00027
O          2.10746        2.16591       -0.00092
C          4.21257        0.51228        0.00014
N          5.15828        1.17595        0.00035
H          0.54863       -3.33451       -0.00004
H          2.98933       -3.87493       -0.00027
H          4.64891       -2.03317       -0.00006
H         -3.92810        2.32209        0.00019
H         -2.26112        4.14871        0.00036
H          0.17811        3.59427        0.00009
C         -3.51948       -0.23467        0.00001
C         -4.47831       -0.96777       -0.00021
C         -5.57883       -1.91747       -0.00042
H         -6.21162       -1.78551        0.88247
H         -6.21100       -1.78578       -0.88377
H         -5.20369       -2.94487       -0.00014
