30
12344381_b3lyp_prop_5.log	Energy: -562694.5286592
C         -4.61142       -1.61964        0.00026
C         -4.88931       -0.24942        0.00013
C         -3.85116        0.67439        0.00020
C         -2.52310        0.23660        0.00038
C         -2.24422       -1.14050        0.00049
C         -3.29502       -2.06367        0.00044
C         -0.84305       -1.63578        0.00065
O         -0.58514       -2.82715        0.00069
C          0.25588       -0.61447        0.00028
C          1.56856       -1.07961       -0.00001
C          2.64699       -0.18586       -0.00043
C          2.37367        1.19134       -0.00028
C          1.06055        1.66954       -0.00001
C         -0.02362        0.76406        0.00023
C         -1.43305        1.25527        0.00045
O         -1.68533        2.44659        0.00030
C          0.91285        3.09740        0.00002
N          0.96402        4.25143        0.00001
H          3.19271        1.89874       -0.00038
H         -5.42387       -2.33714        0.00021
H         -5.91723        0.09458       -0.00002
H         -4.04420        1.73985        0.00012
H         -3.05622       -3.11985        0.00053
H          1.73839       -2.14834        0.00008
C          3.99054       -0.65738       -0.00122
C          5.12814       -1.06022       -0.00187
C          6.49820       -1.54904       -0.00150
H          6.86427       -1.67854        1.02140
H          6.56841       -2.51534       -0.50842
H          7.16463       -0.84758       -0.51080
