26
12344381_b3lyp_2.log	Energy: -548107.5204391
C         -3.55254       -1.27405       -0.00009
C         -2.83958       -2.46903        0.00012
C         -1.45171       -2.44969        0.00023
C         -0.76705       -1.23117        0.00011
C         -1.47110       -0.01608       -0.00023
C         -2.88299       -0.04272       -0.00026
C         -0.72991        1.27709       -0.00072
O         -1.31455        2.34322        0.00012
C          0.76696        1.23104       -0.00018
C          1.45156        2.44962       -0.00025
C          2.83942        2.46899       -0.00007
C          3.55242        1.27402        0.00017
C          2.88291        0.04272        0.00028
C          1.47101        0.01596        0.00017
C          0.72980       -1.27725        0.00059
O          1.31437       -2.34339       -0.00022
C          3.70745       -1.13065        0.00059
N          4.49984       -1.97121        0.00092
H         -4.63542       -1.28000       -0.00017
H          0.87302        3.36476       -0.00053
H          3.37213        3.41240       -0.00016
H          4.63530        1.27999        0.00030
H         -3.37227       -3.41244        0.00026
H         -0.87324       -3.36490        0.00050
C         -3.70745        1.13056       -0.00056
N         -4.49892        1.97199       -0.00075
