27
12506460_b3lyp_5.log	Energy: -538009.8316889
C          3.30617        3.40664        0.00053
C          2.99421        2.24328        0.00021
C          2.80205        0.83042        0.00012
C          1.53638        0.19172       -0.00015
C          1.48015       -1.21877       -0.00010
C          2.64942       -1.98060        0.00012
C          3.88829       -1.35192        0.00035
C          3.96238        0.03446        0.00038
C          0.18097       -1.95797       -0.00017
O          0.14525       -3.17658       -0.00035
C         -1.07381       -1.15524       -0.00009
C         -2.30862       -1.81370        0.00015
C         -3.48703       -1.08637        0.00029
C         -3.43966        0.31975        0.00016
C         -2.20985        0.98161       -0.00013
C         -1.02438        0.24531       -0.00023
C          0.27689        0.99079       -0.00061
O          0.27847        2.20744       -0.00120
H          3.52273        4.44712        0.00059
H         -2.15691        2.06267       -0.00028
H          2.56158       -3.05954        0.00012
H          4.79867       -1.93995        0.00052
H          4.92472        0.53100        0.00061
H         -2.31944       -2.89633        0.00022
H         -4.44612       -1.58921        0.00049
C         -4.65852        1.07165        0.00032
N         -5.64647        1.67015        0.00046
