27
12506460_b3lyp_2.log	Energy: -538008.1551656
C          3.00656        2.84411       -0.00081
C          2.43900        1.78246        0.00024
C          1.94258        0.45004        0.00017
C          0.56570        0.11150        0.00014
C          0.18327       -1.24339        0.00011
C          1.14138       -2.25860        0.00000
C          2.48827       -1.94256       -0.00002
C          2.89335       -0.60320        0.00007
C         -1.25828       -1.66250        0.00028
O         -1.55750       -2.84447       -0.00044
C         -2.28816       -0.59559        0.00008
C         -3.64200       -0.94866       -0.00007
C         -4.61773        0.03964       -0.00013
C         -4.24847        1.38833       -0.00006
C         -2.90578        1.74604        0.00006
C         -1.91578        0.75797        0.00011
C         -0.48297        1.18214        0.00011
O         -0.19001        2.36292        0.00034
H          3.47213        3.79969       -0.00108
H         -3.90309       -1.99958       -0.00010
H         -5.66621       -0.23532       -0.00023
H         -5.01147        2.15832       -0.00011
H         -2.59994        2.78464        0.00009
H          0.80486       -3.28720       -0.00003
H          3.24012       -2.72183       -0.00008
C          4.29583       -0.31969        0.00005
N          5.43759       -0.14494        0.00007
