27
12506460_b3lyp_3.log	Energy: -538005.8150234
C          4.56557        1.93495        0.00060
C          3.73465        1.06296        0.00021
C          2.88844       -0.08467        0.00009
C          1.47141       -0.03805       -0.00013
C          0.74367       -1.24468       -0.00016
C          1.40157       -2.47564       -0.00001
C          2.78999       -2.51972        0.00021
C          3.52284       -1.34008        0.00027
C         -0.75211       -1.27282       -0.00034
O         -1.35527       -2.32981       -0.00054
C         -1.47836        0.02826       -0.00010
C         -2.89004        0.07262        0.00014
C         -3.54396        1.31184        0.00034
C         -2.81441        2.49690        0.00028
C         -1.42705        2.45856        0.00003
C         -0.75725        1.23160       -0.00014
C          0.74465        1.26032       -0.00040
O          1.32580        2.32985       -0.00090
H          5.25533        2.74338        0.00077
H         -4.62669        1.33214        0.00054
H         -3.33435        3.44754        0.00044
H         -0.83599        3.36556       -0.00005
H          0.80549       -3.37918       -0.00006
H          3.30494       -3.47334        0.00033
H          4.60537       -1.36836        0.00046
C         -3.73021       -1.08996        0.00022
N         -4.53641       -1.91749        0.00035
