16
12527779_b3lyp_0.log	Energy: -486056.0322919
C         -1.46329        1.52760        0.00002
C         -1.96785        0.27507        0.00004
C         -1.08197       -0.94871        0.00014
O         -1.53128       -2.06812       -0.00017
C          0.37268       -0.64333        0.00009
C          0.86586        0.60371       -0.00002
C         -0.00285        1.81080        0.00036
O          0.42359        2.94446        0.00014
C          2.36336        0.52103       -0.00038
O          3.18491        1.37585       -0.00019
O          2.68115       -0.83542       -0.00005
C          1.52137       -1.60824        0.00007
O          1.53678       -2.79348        0.00023
H         -2.10730        2.39958       -0.00010
C         -3.37750        0.04460       -0.00008
N         -4.51897       -0.12585       -0.00015
