26
12587549_b3lyp_prop_4.log	Energy: -456324.3199631
C         -2.92202       -1.53900        0.52942
C         -1.53157       -1.82368       -0.06065
C         -0.64184       -0.60872       -0.01923
C         -1.13631        0.64640        0.00897
C         -2.60991        0.95122       -0.03794
C         -3.51993       -0.26994       -0.04154
O         -4.65331       -0.20536       -0.46066
C         -0.21779        1.82259        0.06367
O         -0.66413        2.96020        0.12075
C          1.23356        1.58312        0.04795
C          1.75818        0.33804        0.00002
C          0.83123       -0.85359       -0.02876
O          1.27377       -1.98591       -0.06139
H         -2.82581       -1.39478        1.61387
H         -1.04634       -2.64553        0.46880
H         -2.84745        1.56557       -0.91153
H         -3.61351       -2.36507        0.36041
H         -1.62489       -2.16135       -1.10067
H         -2.88495        1.57705        0.82091
H          1.86087        2.46609        0.07715
C          3.15047        0.08235       -0.01826
C          4.33405       -0.15442       -0.03656
C          5.75751       -0.44572       -0.05969
H          6.20392       -0.12334       -1.00523
H          6.27650        0.07617        0.74957
H          5.93735       -1.51813        0.05283
