26
12587549_b3lyp_prop_2.log	Energy: -456315.9967773
C          0.69898        2.33148        0.44086
C         -0.81174        2.05145        0.54450
C         -1.17835        0.62773        0.21782
C         -0.35087       -0.23469       -0.40971
C          1.07197        0.12945       -0.81685
C          1.27437        1.66029       -0.78455
O          1.83125        2.24191       -1.68276
C         -0.80869       -1.60835       -0.78069
O         -0.10278       -2.35708       -1.43427
C         -2.16671       -2.02891       -0.35691
C         -2.98483       -1.18508        0.28001
C         -2.56093        0.19855        0.60031
O         -3.32197        0.96607        1.16692
H          1.20639        1.91394        1.31722
H         -1.18734        2.30284        1.53882
H          1.24501       -0.20543       -1.84365
H         -2.44913       -3.04325       -0.61605
H         -3.98828       -1.45543        0.58946
H          0.90237        3.40152        0.39805
H         -1.35977        2.70752       -0.14295
C          2.05560       -0.50616        0.06396
C          2.87643       -0.99835        0.79477
C          3.87540       -1.61682        1.65659
H          3.60218       -1.52323        2.71144
H          3.97901       -2.68145        1.42855
H          4.85384       -1.14779        1.51932
