22
12587549_b3lyp_3.log	Energy: -441738.6637511
C         -2.55249       -1.41304        0.53201
C         -1.18936       -1.79038       -0.06927
C         -0.21732       -0.64097       -0.02899
C         -0.62335        0.64752        0.00595
C         -2.07201        1.05361       -0.03053
C         -3.06598       -0.10224       -0.02639
O         -4.19613        0.04706       -0.42893
C          0.37017        1.75604        0.05851
O          0.02031        2.92275        0.11881
C          1.81345        1.41655        0.03691
C          2.22740        0.13825       -0.01625
C          1.23264       -0.98947       -0.04592
O          1.61080       -2.14289       -0.08404
H         -2.44084       -1.28448        1.61685
H         -3.29934       -2.18883        0.36173
H         -1.31134       -2.11314       -1.11111
H         -2.27230        1.68156       -0.90390
H         -0.75821       -2.64736        0.45120
H         -2.29704        1.69729        0.82953
H          2.50284        2.25226        0.06599
C          3.61396       -0.20497       -0.03989
N          4.73910       -0.46258       -0.05911
