26
12587549_b3lyp_prop_1.log	Energy: -456317.8095580
C          1.35224        0.95852       -1.57053
C          0.96746       -0.44365       -1.04626
C         -0.43984       -0.40795       -0.47216
C         -0.89390        0.67729        0.18702
C         -0.04333        1.89557        0.40970
C          1.14771        2.04897       -0.53528
O          1.86917        3.01599       -0.46160
C         -2.27581        0.69500        0.75496
O         -2.70924        1.67787        1.33395
C         -3.11101       -0.52094        0.59696
C         -2.65734       -1.59378       -0.06014
C         -1.30311       -1.60833       -0.66661
O         -0.92160       -2.56962       -1.31415
H          0.70609        1.20072       -2.42442
H          0.96806       -1.14995       -1.88139
H          0.36048        1.88452        1.43021
H         -0.65109        2.80322        0.36100
H         -4.10036       -0.47507        1.03847
H         -3.24744       -2.49267       -0.19988
H          2.38615        0.98918       -1.91432
C          1.91377       -0.93065       -0.03556
C          2.69453       -1.31491        0.79715
C          3.64412       -1.78907        1.79594
H          4.12615       -2.71463        1.46891
H          4.42687       -1.04687        1.97597
H          3.14543       -1.98877        2.74866
