31
12635763_b3lyp_prop_0.log	Energy: -552587.1422271
C          1.21812        4.73229        0.00006
C          0.64884        3.66994        0.00000
C         -0.20777        2.53048       -0.00000
C          0.22384        1.18358       -0.00000
C         -0.72402        0.13000       -0.00000
C         -2.11189        0.41835       -0.00001
C         -2.51286        1.76846       -0.00002
C         -1.59087        2.79197       -0.00001
C         -0.27184       -1.29717        0.00002
O         -1.06779       -2.22064        0.00005
C          1.19223       -1.57526        0.00001
C          1.63047       -2.90430        0.00001
C          2.98978       -3.18840        0.00000
C          3.92480       -2.14785       -0.00001
C          3.49674       -0.82695       -0.00002
C          2.12806       -0.53438       -0.00001
C          1.69295        0.88917       -0.00001
O          2.51972        1.78431       -0.00005
H          1.78145        5.63316        0.00008
H         -3.57243        1.99189       -0.00003
H         -1.92238        3.82287       -0.00001
H          0.88878       -3.69304        0.00002
H          3.32655       -4.21892        0.00001
H          4.98541       -2.37245       -0.00002
H          4.20115       -0.00464       -0.00003
C         -3.14796       -0.55596       -0.00002
C         -4.12402       -1.26679       -0.00000
C         -5.23674       -2.20214       -0.00001
H         -5.86817       -2.06170        0.88268
H         -5.86765       -2.06228       -0.88316
H         -4.87533       -3.23457        0.00043
