31
12635763_b3lyp_prop_2.log	Energy: -552590.8239582
C          2.57843       -2.82499       -0.00049
C          2.03185       -1.75175       -0.00011
C          1.53386       -0.41824        0.00006
C          0.15282       -0.09632        0.00009
C         -0.24838        1.25467        0.00008
C          0.70544        2.27516        0.00018
C          2.05321        1.97112        0.00022
C          2.49122        0.63721        0.00009
C         -1.68626        1.66120       -0.00014
O         -2.00462        2.84025       -0.00011
C         -2.70921        0.58448       -0.00011
C         -4.06613        0.92481       -0.00022
C         -5.03314       -0.07215       -0.00019
C         -4.65137       -1.41736       -0.00004
C         -3.30524       -1.76180        0.00008
C         -2.32428       -0.76451        0.00004
C         -0.88526       -1.17530        0.00021
O         -0.58948       -2.35633        0.00056
H          3.01024       -3.79562       -0.00069
H         -4.33574        1.97363       -0.00034
H         -6.08425        0.19320       -0.00028
H         -5.40712       -2.19465       -0.00001
H         -2.98875       -2.79725        0.00021
H          0.36095        3.30140        0.00021
H          2.79455        2.76053        0.00032
C          3.88764        0.37003       -0.00003
C          5.08001        0.18371       -0.00008
C          6.51274       -0.06605       -0.00014
H          6.98356        0.35461        0.89346
H          6.72188       -1.13919       -0.01986
H          6.98966        0.38854       -0.87364
