31
12635763_b3lyp_prop_5.log	Energy: -552592.3518741
C         -3.24045        3.73586       -0.00030
C         -3.08662        2.54108       -0.00005
C         -3.09101        1.11436        0.00017
C         -1.92630        0.30612        0.00002
C         -2.06617       -1.09738        0.00023
C         -3.33001       -1.68908        0.00061
C         -4.46988       -0.89503        0.00078
C         -4.35095        0.48831        0.00055
C         -0.87924       -2.01118        0.00005
O         -1.02326       -3.22386        0.00022
C          0.46732       -1.39146       -0.00034
C          1.60382       -2.20882       -0.00044
C          2.86995       -1.64931       -0.00062
C          3.03493       -0.24814       -0.00080
C          1.89382        0.56613       -0.00069
C          0.61778        0.00416       -0.00047
C         -0.56500        0.92224       -0.00032
O         -0.40614        2.12948       -0.00049
H         -3.31261        4.79595       -0.00089
H          1.98862        1.64410       -0.00068
H         -3.39122       -2.76988        0.00077
H         -5.45321       -1.35101        0.00108
H         -5.23482        1.11393        0.00067
H          1.46769       -3.28314       -0.00026
H          3.74822       -2.28320       -0.00052
C          4.33859        0.32770       -0.00101
C          5.44372        0.81325       -0.00063
C          6.77370        1.40414        0.00158
H          7.13010        1.55925        1.02454
H          7.49233        0.75702       -0.50923
H          6.77209        2.37431       -0.50321
