18
12754795_b3lyp_prop_1.log	Energy: -369804.5099455
C         -0.25805        1.63854        0.00005
C         -0.75544        0.37775       -0.00008
C          0.18189       -0.80520       -0.00026
O         -0.22140       -1.94521       -0.00063
C          1.65630       -0.50621        0.00004
C          2.11450        0.75950        0.00010
C          1.18416        1.91722        0.00000
O          1.62327        3.05723       -0.00007
C          2.54594       -1.62490        0.00020
N          3.28152       -2.51458        0.00038
H          3.17321        0.99169        0.00023
H         -0.91129        2.50282        0.00012
C         -2.14027        0.09224       -0.00015
C         -3.31719       -0.17694       -0.00016
C         -4.73148       -0.50705        0.00014
H         -5.21147       -0.15284        0.91724
H         -5.24038       -0.03741       -0.84666
H         -4.87781       -1.58812       -0.06724
