20
12838779_b3lyp_prop_0.log	Energy: -430239.9736380
C         -1.35906       -0.00064        1.16500
O         -0.51260       -1.16371        0.92849
C          0.61750       -0.67234        0.35340
C          0.61724        0.67214        0.35366
O         -0.51302        1.16285        0.92899
C          1.71870        1.48142       -0.17675
O          1.73480        2.69807       -0.17469
C          2.85150        0.67015       -0.72762
C          2.85179       -0.66910       -0.72782
C          1.71931       -1.48101       -0.17718
O          1.73594       -2.69765       -0.17542
H         -1.64012       -0.00091        2.21909
H          3.67574        1.24965       -1.12774
H          3.67627       -1.24815       -1.12808
C         -2.51818       -0.00061        0.28938
C         -3.50983       -0.00036       -0.39229
C         -4.69577        0.00036       -1.23376
H         -5.60389       -0.07519       -0.62984
H         -4.75159        0.92157       -1.82004
H         -4.67657       -0.84357       -1.92858
