25
12913941_b3lyp_prop_1.log	Energy: -432391.0853824
C          0.74709        0.91663       -0.00737
C          1.58172       -0.30683        0.40429
O          1.16076       -1.45244       -0.35309
C         -0.15774       -1.85813       -0.03094
C         -1.13573       -0.71187       -0.01922
C         -0.71580        0.56978       -0.02088
C         -1.70290        1.68790       -0.03103
O         -1.34074        2.85344       -0.03032
C         -3.14770        1.34357       -0.03552
C         -3.55815        0.07066       -0.01255
C         -2.58394       -1.04887        0.00519
O         -2.96308       -2.20980        0.03533
H          1.05997        1.25707       -0.99984
H          1.40060       -0.51192        1.47162
H         -0.45037       -2.59399       -0.78166
H         -0.18200       -2.37003        0.94420
H         -3.83329        2.18363       -0.05011
H         -4.60512       -0.21190       -0.00662
H          0.92571        1.75178        0.67468
C          3.01060       -0.10295        0.20135
C          4.18778        0.09528        0.04868
C          5.61415        0.31812       -0.14630
H          5.80521        1.31006       -0.56520
H          6.15869        0.23900        0.79884
H          6.02873       -0.42298       -0.83556
