17
129812261_b3lyp_0.log	Energy: -392911.7225729
C          3.76633       -0.84149        0.00004
C          2.57621       -0.65757        0.00003
C          1.17612       -0.46628       -0.00003
C          0.59884        0.77712       -0.00003
C         -0.89279        0.94078       -0.00014
O         -1.41697        2.03160       -0.00008
C         -1.72222       -0.31145       -0.00002
C         -1.14781       -1.52735       -0.00002
C          0.32351       -1.69938       -0.00009
O          0.80595       -2.81479        0.00002
C          1.35820        1.96914        0.00002
C          1.98880        2.99504        0.00008
H          4.81729       -1.00363        0.00007
H         -1.72846       -2.44238        0.00004
H          2.54510        3.90135        0.00012
C         -3.14230       -0.15334        0.00005
N         -4.29186       -0.04874        0.00012
