18
129814774_b3lyp_1.log	Energy: -437777.8749114
C          2.87141       -0.27449       -0.00014
C          2.33439       -1.50001       -0.00017
C          0.87173       -1.70340       -0.00012
O          0.38284       -2.81898       -0.00016
C         -0.01158       -0.49006       -0.00006
C          0.53050        0.74719       -0.00001
C          2.03054        0.94240        0.00008
O          2.50984        2.05450        0.00034
C         -1.51452       -0.78693       -0.00009
C         -2.17186       -0.30104        1.22139
N         -2.66442        0.03850        2.20506
C         -2.17195       -0.30058       -1.22131
N         -2.66464        0.03925       -2.20482
H          3.94164       -0.10263       -0.00021
H         -1.60049       -1.88195       -0.00026
H          2.93317       -2.40349       -0.00026
C         -0.25401        1.93833       -0.00000
N         -0.88575        2.90445        0.00003
