22
129814774_b3lyp_prop_2.log	Energy: -452369.5026749
C          2.70055        1.48309        0.00001
C          3.07735        0.19999       -0.00001
C          2.08464       -0.89852       -0.00001
O          2.44408       -2.06739       -0.00000
C          0.64594       -0.53676       -0.00001
C          0.23885        0.76105        0.00001
C          1.27221        1.87242        0.00000
O          0.93679        3.03800        0.00000
C         -0.31918       -1.72312       -0.00002
C         -1.14750       -1.77220        1.21457
N         -1.76608       -1.82936        2.18439
C         -1.14754       -1.77214       -1.21460
N         -1.76613       -1.82926       -2.18441
H          0.31178       -2.62239       -0.00005
H          3.40931        2.30343        0.00003
H          4.11683       -0.10761       -0.00001
C         -1.11448        1.14782        0.00001
C         -2.27850        1.47149        0.00002
C         -3.67936        1.84402        0.00003
H         -4.18065        1.43936       -0.88423
H         -4.18070        1.43917        0.88417
H         -3.79597        2.93054        0.00013
