21
130029656_b3lyp_prop_0.log	Energy: -394486.8736435
C         -3.36479       -0.72761        0.00003
C         -1.88836       -0.50758       -0.00003
C         -1.28764        0.70778       -0.00003
C          0.20159        0.87747        0.00001
O          0.70327        1.97942        0.00006
C          1.04101       -0.37510       -0.00000
C          0.43385       -1.58452        0.00000
C         -1.02529       -1.73887       -0.00001
O         -1.54331       -2.84502       -0.00001
C         -2.04994        1.91830       -0.00003
N         -2.68315        2.88403       -0.00003
H         -3.91597        0.21116       -0.00070
H         -3.65261       -1.31937        0.87367
H         -3.65250       -1.32078       -0.87268
H          1.00505       -2.50511        0.00000
C          2.44489       -0.20860       -0.00001
C          3.64017       -0.03833        0.00000
C          5.07690        0.17444       -0.00001
H          5.53643       -0.27842        0.88350
H          5.53622       -0.27713       -0.88428
H          5.31137        1.24205        0.00074
