20
130027375_b3lyp_0.log	Energy: -404582.0346457
C          2.54018        1.69585       -0.00001
C          1.29940        0.86494       -0.00001
C          1.27677       -0.48976        0.00002
C         -0.00002       -1.26921        0.00010
O          0.00001       -2.47994       -0.00007
C         -1.27672       -0.48979        0.00000
C         -1.29915        0.86492       -0.00004
C          0.00011        1.61149       -0.00008
O          0.00004        2.82860        0.00005
C         -2.54007        1.69566       -0.00001
C         -2.48000       -1.26152       -0.00000
N         -3.46358       -1.86622        0.00002
H          2.54892        2.35359       -0.87375
H          3.43845        1.08120        0.00008
H          2.54884        2.35374        0.87361
H         -2.54900        2.35379       -0.87343
H         -3.43815        1.08066       -0.00053
H         -2.54951        2.35293        0.87406
C          2.47997       -1.26159        0.00001
N          3.46317       -1.86680        0.00001
