20
130029677_b3lyp_0.log	Energy: -404582.4079617
C          1.74159       -2.39616       -0.00010
C          0.92624       -1.14603       -0.00002
C          1.43293        0.11065        0.00007
C          0.56249        1.32608        0.00035
O          1.04510        2.43980       -0.00019
C         -0.92619        1.14602        0.00008
C         -1.43287       -0.11068       -0.00001
C         -0.56244       -1.32606       -0.00015
O         -1.04506       -2.43981        0.00022
C         -2.84256       -0.35098       -0.00005
N         -3.98369       -0.52665       -0.00013
C         -1.74170        2.39607        0.00003
H          1.49109       -3.00469       -0.87368
H          1.49109       -3.00481        0.87341
H          2.80890       -2.18260       -0.00008
H         -2.80898        2.18225       -0.00008
H         -1.49162        3.00463        0.87370
H         -1.49146        3.00469       -0.87355
C          2.84263        0.35087       -0.00000
N          3.98368        0.52693       -0.00003
