24
130027375_b3lyp_prop_0.log	Energy: -419167.5934024
C         -1.29600        2.59863       -0.00016
C         -0.44752        1.36550       -0.00006
C         -0.94730        0.09887       -0.00010
C         -0.02942       -1.09150       -0.00035
O         -0.45756       -2.22553       -0.00078
C          1.44579       -0.83579       -0.00002
C          1.96145        0.41546        0.00006
C          1.02011        1.58559       -0.00004
O          1.47901        2.71760       -0.00008
C          3.42023        0.73497        0.00037
C          2.28351       -1.99486        0.00010
N          2.97815       -2.91750        0.00029
H         -1.06851        3.21626        0.87338
H         -2.35489        2.34747        0.00106
H         -1.07033        3.21481       -0.87523
H          3.66879        1.34319        0.87462
H          4.03173       -0.16575       -0.00108
H          3.66857        1.34614       -0.87184
C         -2.33348       -0.19478       -0.00012
C         -3.50489       -0.48744        0.00004
C         -4.91094       -0.85462        0.00037
H         -5.40315       -0.51210        0.91550
H         -5.43317       -0.40454       -0.84905
H         -5.02694       -1.93976       -0.06303
