21
130029656_b3lyp_prop_1.log	Energy: -394486.6504943
C         -1.76137        2.37448        0.00031
C         -1.12558        1.02208        0.00006
C         -1.80670       -0.14957        0.00003
C         -1.10761       -1.47727       -0.00030
O         -1.73977       -2.51819       -0.00041
C          0.36120       -1.47125       -0.00021
C          1.08568       -0.32884       -0.00010
C          0.37689        1.00045       -0.00028
O          0.99676        2.04423       -0.00100
C         -3.23598       -0.18594        0.00032
N         -4.39079       -0.19675        0.00060
H         -2.84806        2.30936        0.00057
H         -1.43147        2.94329       -0.87349
H         -1.43105        2.94317        0.87404
H          0.83421       -2.44585       -0.00018
C          2.50054       -0.30744        0.00014
C          3.70695       -0.26598        0.00032
C          5.15852       -0.20927        0.00048
H          5.56664       -0.70791        0.88452
H          5.56694       -0.70859       -0.88308
H          5.50713        0.82675        0.00016
