21
130412007_b3lyp_0.log	Energy: -394510.9369914
C         -2.16444       -0.83231       -1.07170
C         -1.60710        0.46847       -0.45032
C         -0.09720        0.38217       -0.26750
C          0.48036       -0.81525       -0.00316
C         -0.30300       -2.04479        0.03568
C         -1.54671       -2.06421       -0.46526
C          1.95655       -0.89658        0.25298
O          2.49437       -1.95926        0.50926
C          2.73797        0.36177        0.19202
C          2.15241        1.53370       -0.08069
C          0.69347        1.62970       -0.34178
O          0.17410        2.70125       -0.61800
H         -1.95006       -0.82499       -2.14964
H         -3.25173       -0.84963       -0.97368
H         -1.82957        1.32072       -1.09786
H          0.17520       -2.93452        0.42427
H         -2.11296       -2.98881       -0.49325
H          3.80087        0.26655        0.38359
H          2.70245        2.46670       -0.13232
C         -2.24125        0.75245        0.84739
N         -2.74976        0.96533        1.86041
