25
130412007_b3lyp_prop_4.log	Energy: -409096.7418861
C          3.74999       -0.39149        0.43211
C          2.97323        0.77447       -0.19406
C          1.48291        0.58346       -0.08242
C          0.95640       -0.66729       -0.10426
C          1.82570       -1.84135       -0.16618
C          3.13913       -1.72367        0.08000
C         -0.52024       -0.88702       -0.07971
O         -0.99170       -2.00674       -0.12642
C         -1.41337        0.32888       -0.00640
C         -0.85643        1.56079        0.01090
C          0.60261        1.77377       -0.03451
O          1.06330        2.90992       -0.03272
H          4.79621       -0.35159        0.11783
H          3.25882        1.73034        0.24712
H         -1.46327        2.45736        0.05788
H          3.76156       -0.29608        1.52865
H          3.21734        0.84840       -1.26419
H          1.36222       -2.80001       -0.36100
H          3.77192       -2.60554        0.09072
C         -2.81242        0.11018        0.03585
C         -4.00127       -0.09562        0.07171
C         -5.43150       -0.35093        0.11544
H         -5.95280        0.20788       -0.66739
H         -5.64157       -1.41445       -0.02616
H         -5.85180       -0.04675        1.07883
