25
130412007_b3lyp_prop_5.log	Energy: -409096.8870379
C         -3.25083       -1.57542        0.40131
C         -1.88516       -1.82165       -0.25398
C         -0.96722       -0.63370       -0.10792
C         -1.48657        0.61996       -0.07363
C         -2.93075        0.83369       -0.10436
C         -3.77019       -0.19007        0.11440
C         -0.58776        1.81208       -0.01672
O         -1.04104        2.94813       -0.01390
C          0.86547        1.58212        0.02740
C          1.40324        0.34175       -0.00659
C          0.49399       -0.86523       -0.09381
O          0.96003       -1.99016       -0.15309
H         -3.96498       -2.33207        0.06586
H         -1.40578       -2.71484        0.14843
H         -3.17654       -1.69568        1.49299
H         -2.01949       -2.00712       -1.32983
H         -3.28449        1.84638       -0.25064
H         -4.84131       -0.01800        0.15148
H          1.48442        2.46966        0.08401
C          2.79872        0.10432        0.03459
C          3.98483       -0.11755        0.06924
C          5.41120       -0.39309        0.11156
H          5.90336       -0.03540       -0.79793
H          5.88112        0.10689        0.96364
H          5.59800       -1.46674        0.19897
