30
13182761_b3lyp_prop_6.log	Energy: -562693.7889103
C          4.45086        1.14348        0.00032
C          4.73563       -0.22562        0.00015
C          3.70016       -1.15110       -0.00006
C          2.37093       -0.71437       -0.00009
C          2.08311        0.65971        0.00008
C          3.13311        1.58388        0.00027
C          0.67893        1.17266        0.00006
O          0.46250        2.37123        0.00009
C         -0.43277        0.17155       -0.00004
C         -0.13507       -1.20709       -0.00010
C          1.27689       -1.71657       -0.00032
O          1.50467       -2.91415       -0.00066
C         -1.14735       -2.16190       -0.00002
C         -2.48295       -1.75282        0.00012
C         -2.79637       -0.39270        0.00011
C         -1.79061        0.58836        0.00002
C         -3.53590       -2.72427        0.00026
N         -4.38777       -3.50414        0.00038
H          5.26042        1.86444        0.00047
H          5.76498       -0.56534        0.00019
H          3.89459       -2.21637       -0.00020
H          2.89239        2.63946        0.00039
H         -0.87953       -3.21018       -0.00009
H         -3.83166       -0.07792        0.00018
C         -2.21804        1.94524       -0.00003
C         -2.70151        3.05095       -0.00016
C         -3.20539        4.41401       -0.00028
H         -3.82318        4.60303        0.88276
H         -2.38027        5.13177       -0.00006
H         -3.82280        4.60307       -0.88357
