30
13182761_b3lyp_prop_4.log	Energy: -562693.3221060
C          4.79441        0.60992        0.00148
C          4.20183        1.87656        0.00077
C          2.81802        2.00177       -0.00026
C          2.00903        0.86070       -0.00049
C          2.60564       -0.40971        0.00022
C          3.99979       -0.52897        0.00117
C          1.77026       -1.63504       -0.00012
O          2.26641       -2.74913       -0.00005
C          0.27911       -1.46507       -0.00036
C         -0.32814       -0.19368       -0.00066
C          0.52368        1.03712       -0.00168
O          0.04096        2.15491       -0.00353
C         -1.74454       -0.09262       -0.00025
C         -2.49917       -1.29625        0.00001
C         -1.87260       -2.54650        0.00003
C         -0.49119       -2.62891       -0.00007
C         -3.92923       -1.25153        0.00021
N         -5.08445       -1.26493        0.00029
H         -2.48061       -3.44269        0.00019
H          0.01561       -3.58501        0.00008
H          5.87437        0.51650        0.00226
H          4.82351        2.76465        0.00101
H          2.34077        2.97359       -0.00089
H          4.43439       -1.52078        0.00164
C         -2.45742        1.13282        0.00017
C         -3.18648        2.09455        0.00085
C         -4.01730        3.28486        0.00160
H         -4.64334        3.31896        0.89823
H         -3.40362        4.18960       -0.02502
H         -4.68314        3.29308       -0.86644
