26
13182761_b3lyp_1.log	Energy: -548111.3038418
C          3.90833        1.29738       -0.00008
C          3.96365       -0.09264       -0.00004
C          2.78744       -0.85574        0.00001
C          1.53305       -0.20760        0.00006
C          1.49562        1.19870       -0.00008
C          2.67900        1.94205       -0.00009
C          0.20068        1.94820       -0.00040
O          0.17955        3.16601        0.00050
C         -1.05979        1.15393       -0.00009
C         -1.02537       -0.24857        0.00005
C          0.26669       -1.00115        0.00040
O          0.27909       -2.21638       -0.00048
C         -2.21683       -0.97489        0.00005
C         -3.44023       -0.30093       -0.00001
C         -3.47343        1.10542       -0.00007
C         -2.28849        1.82284       -0.00011
C         -4.66681       -1.04007        0.00004
N         -5.66161       -1.62677        0.00008
H          4.82685        1.87192       -0.00013
H          2.60744        3.02242       -0.00020
H         -2.17462       -2.05654        0.00017
H         -4.42763        1.61742       -0.00012
H         -2.29099        2.90551       -0.00022
H          4.91781       -0.60475       -0.00003
C          2.95552       -2.27994        0.00013
N          3.25562       -3.39538        0.00018
