30
13182761_b3lyp_prop_5.log	Energy: -562698.4438866
C          4.97379       -1.13566        0.00041
C          5.14083        0.25213        0.00049
C          4.03099        1.08859        0.00029
C          2.74221        0.54607        0.00002
C          2.57393       -0.85117       -0.00007
C          3.69716       -1.68450        0.00013
C          1.21802       -1.46947       -0.00038
O          1.06555       -2.67872       -0.00036
C          0.04054       -0.54463       -0.00035
C          0.21337        0.85053       -0.00027
C          1.57114        1.46903       -0.00011
O          1.71168        2.68044       -0.00021
C         -0.90694        1.68038       -0.00022
C         -2.19132        1.13698       -0.00015
C         -2.37811       -0.27278       -0.00023
C         -1.24065       -1.09011       -0.00037
C         -3.32231        2.01272        0.00008
N         -4.22427        2.73449        0.00029
H         -1.34919       -2.16681       -0.00044
H          5.84116       -1.78584        0.00057
H          6.13780        0.67767        0.00072
H          4.13766        2.16623        0.00036
H          3.54511       -2.75666        0.00005
H         -0.76363        2.75345       -0.00017
C         -3.67986       -0.83884       -0.00001
C         -4.79321       -1.30468        0.00021
C         -6.13954       -1.85206        0.00052
H         -6.31078       -2.46416        0.89081
H         -6.88304       -1.05072       -0.01157
H         -6.30331       -2.48354       -0.87758
