20
134204124_b3lyp_1.log	Energy: -370587.2307183
C         -0.82283        2.59065       -0.00005
C         -0.39328        1.14722       -0.00005
C         -1.27001        0.09624        0.00004
C         -0.73468       -1.30350        0.00017
O         -1.44819       -2.29258       -0.00023
C          0.73498       -1.51023        0.00004
C          1.59468       -0.48011       -0.00002
C          1.08314        0.92955       -0.00024
O          1.87148        1.85615        0.00011
C         -2.71435        0.34233        0.00002
C         -3.72113       -0.54460        0.00013
H         -1.42538        2.82390        0.88235
H         -1.42564        2.82381       -0.88230
H          0.05041        3.23929       -0.00021
H         -2.98609        1.39141       -0.00007
H         -4.74286       -0.18130        0.00012
H         -3.56597       -1.61238        0.00022
H          1.06016       -2.54391        0.00006
C          3.00999       -0.67539        0.00003
N          4.15000       -0.85749        0.00005
