19
14080455_b3lyp_0.log	Energy: -440338.5447242
C          1.58513       -1.47561       -0.32857
C          2.00235       -0.19297        0.40990
O          1.14029        0.88952        0.04332
C         -0.17501        0.53865        0.00518
C         -0.60118       -0.74763        0.01350
O          0.24425       -1.80787        0.02042
C         -2.04949       -1.08438        0.02643
O         -2.43604       -2.23640        0.05230
C         -2.99936        0.05879       -0.00716
C         -2.57682        1.32648       -0.05370
C         -1.13070        1.67499       -0.04168
O         -0.75261        2.82987       -0.05659
H          1.66201       -1.31896       -1.40870
H          2.20640       -2.31934       -0.03295
H          1.92323       -0.35935        1.49097
H         -4.04923       -0.21078       -0.00107
H         -3.25523        2.17108       -0.09042
C          3.37845        0.18427        0.08917
N          4.47794        0.42012       -0.15884
