17
141161619_b3lyp_3.log	Energy: -416278.5981943
C         -0.36131       -0.77033        0.00002
C         -0.30296        0.57845       -0.00009
C         -1.51744        1.41772       -0.00006
C         -2.80771        0.66100        0.00013
C         -2.86929       -0.67925        0.00022
C         -1.64586       -1.51717        0.00020
C          0.99283       -1.36678       -0.00006
C          1.90656       -0.37707       -0.00008
C          1.16269        0.96736       -0.00023
O         -1.50240        2.63329       -0.00004
O         -1.67629       -2.73436        0.00019
O          1.65624        2.05724       -0.00023
H         -3.69977        1.27787        0.00017
H         -3.81107       -1.21659        0.00032
H          1.17494       -2.43192        0.00001
C          3.31479       -0.48338       -0.00003
N          4.46880       -0.55172       -0.00001
