17
141161619_b3lyp_0.log	Energy: -416275.5739300
C          0.98149        0.85498        0.00001
C          0.69892       -0.46525        0.00004
C         -0.67128       -0.99081       -0.00013
C         -1.75639        0.07605       -0.00010
C         -1.47063        1.39461       -0.00012
C         -0.07288        1.89331       -0.00004
C          2.45119        1.08449        0.00009
C          3.07588       -0.10011        0.00012
C          2.03825       -1.19833        0.00020
H         -2.24785        2.15002       -0.00016
H          2.89031        2.07182        0.00005
O         -0.96049       -2.16690       -0.00007
O          0.18455        3.08359       -0.00009
O          2.23522       -2.38348        0.00029
H          4.13665       -0.30266        0.00014
C         -3.10834       -0.38462       -0.00011
N         -4.20723       -0.73868       -0.00011
