17
141161619_b3lyp_2.log	Energy: -416275.5555540
C          0.33255       -0.24557        0.00006
C         -0.80651        0.47438       -0.00003
C         -2.14137       -0.16114       -0.00002
C         -2.13336       -1.65439        0.00013
C         -1.00096       -2.37235        0.00019
C          0.33821       -1.73151        0.00051
C          1.52279        0.67299       -0.00016
C          1.08906        1.94776       -0.00014
C         -0.41916        1.94312       -0.00027
O         -3.18419        0.46355        0.00007
O          1.37125       -2.37309       -0.00001
O         -1.13540        2.90826       -0.00015
H          1.68185        2.85012       -0.00013
H         -3.11253       -2.12058        0.00006
H         -1.00010       -3.45661        0.00015
C          2.88293        0.26376       -0.00011
N          4.00464       -0.01214       -0.00005
