21
141161619_b3lyp_prop_3.log	Energy: -430864.7262395
C          0.82660        0.77122        0.00001
C          0.82319       -0.58473        0.00000
C          2.05973       -1.37421       -0.00001
C          3.32471       -0.57059       -0.00003
C          3.34001        0.77049       -0.00002
C          2.08638        1.56231       -0.00002
C         -0.53635        1.32194        0.00003
C         -1.42812        0.30359        0.00004
C         -0.62476       -1.01744        0.00002
O          2.10292       -2.59236       -0.00000
O          2.07864        2.78089        0.00001
O         -1.08274       -2.12540        0.00002
H          4.23776       -1.15627       -0.00004
H          4.26185        1.34161       -0.00003
H         -0.74996        2.38050        0.00004
C         -2.82879        0.32836        0.00006
C         -4.03745        0.28680        0.00002
C         -5.48923        0.24133       -0.00007
H         -5.89456        0.74268        0.88408
H         -5.89449        0.74378       -0.88361
H         -5.84669       -0.79177       -0.00073
