22
141265078_b3lyp_prop_0.log	Energy: -384380.4030364
C          0.06828        3.41064        1.34131
C          0.15044        2.69272        0.38104
C          0.25321        1.81239       -0.78356
C          0.63620        0.39953       -0.39588
C         -0.28192       -0.56632       -0.12039
C          0.16069       -1.95263        0.28210
O         -0.64350       -2.83462        0.51402
C          1.61636       -2.20641        0.38983
C          2.51223       -1.25365        0.11381
C          2.09187        0.09992       -0.32266
O          2.92871        0.93669       -0.62664
H         -0.00042        4.04892        2.18789
H          1.01525        2.20859       -1.46021
H         -0.70328        1.79710       -1.31277
H          1.89576       -3.20761        0.69843
H          3.58251       -1.41593        0.17667
C         -1.67954       -0.34466       -0.18094
C         -2.87483       -0.17852       -0.21760
C         -4.31474        0.01355       -0.25280
H         -4.68208        0.00635       -1.28355
H         -4.82551       -0.78451        0.29267
H         -4.59338        0.97113        0.19626
