18
141265078_b3lyp_3.log	Energy: -369794.9668693
C          3.68794       -0.81065        1.27811
C          3.07412       -0.44942        0.31079
C          2.31997        0.00725       -0.85635
C          0.89236        0.36521       -0.49696
C          0.48222        1.62665       -0.28767
C         -0.90498        1.95590        0.10077
O         -1.26511        3.10640        0.28284
C         -1.85932        0.83198        0.27077
C         -1.47847       -0.44086        0.05325
C         -0.07520       -0.76953       -0.38095
O          0.24269       -1.90924       -0.64573
H          4.23381       -1.14017        2.12847
H          2.31311       -0.78440       -1.61150
H          2.81091        0.88139       -1.29318
H          1.15522        2.47281       -0.37991
H         -2.86744        1.09370        0.57034
C         -2.38858       -1.53232        0.20294
N         -3.13809       -2.40082        0.33152
