20
141345307_b3lyp_0.log	Energy: -370590.8736643
O         -1.21904        2.23949       -0.08882
O          1.06898       -2.55408       -0.08515
C          0.79405        1.02476        0.01235
C         -1.53943       -0.10840       -0.07793
C         -0.70263        1.13749       -0.05268
C          1.36361       -0.20468        0.00334
C         -0.92006       -1.30664       -0.12054
C          0.54095       -1.45697       -0.06926
C          1.55032        2.31192        0.07530
C         -2.99310        0.08576       -0.08796
C         -3.89450       -0.83294        0.27233
H         -1.47012       -2.23785       -0.19598
H          1.31002        2.92980       -0.79434
H          2.62557        2.14659        0.11587
H          1.23837        2.88775        0.95124
H         -3.32145        1.07654       -0.38151
H         -4.95457       -0.61341        0.23396
H         -3.61524       -1.81814        0.63067
C          2.78155       -0.37721        0.05970
N          3.92904       -0.49903        0.10627
