18
141333781_b3lyp_1.log	Energy: -393133.3294689
C          1.82711       -1.76748       -0.01696
C          3.05001       -0.81375        0.02762
O          2.52075        0.56088       -0.00692
C          1.19000        0.47122       -0.00219
C          0.68673       -0.78159        0.00008
C         -0.73917       -1.04893       -0.00214
O         -1.22352       -2.16614       -0.00736
C         -1.63131        0.18426        0.00151
C         -1.12185        1.43209       -0.00000
C          0.34339        1.69302       -0.00314
O          0.79356        2.81963       -0.00671
H          1.81117       -2.38501       -0.91879
H          1.79612       -2.44458        0.83979
H          3.62900       -0.89930        0.94684
H         -1.75423        2.31209        0.00129
H          3.71412       -0.91312       -0.82966
C         -3.04208       -0.03704        0.00569
N         -4.18563       -0.19654        0.00939
