22
14289169_b3lyp_1.log	Energy: -371365.9300686
C         -1.45680        2.64184        0.87269
C         -1.22677        1.88570       -0.45325
C         -0.39692        0.64980       -0.26424
C         -0.90941       -0.59683       -0.11779
C         -0.03424       -1.79401        0.10327
O         -0.50958       -2.90709        0.22713
C          1.42126       -1.56629        0.16675
C          1.97771       -0.35140        0.02723
C          1.09521        0.83274       -0.20724
O          1.57752        1.94171       -0.35805
C          3.45200       -0.09489        0.08338
H         -1.99145        2.01864        1.59321
H         -2.05769        3.53464        0.68658
H         -0.51047        2.95763        1.31545
H         -2.18939        1.61292       -0.88984
H          2.01725       -2.45739        0.33332
H          3.68863        0.61376        0.88181
H          4.00319       -1.02034        0.25166
H          3.79743        0.36464       -0.84663
H         -0.70832        2.54578       -1.15186
C         -2.31820       -0.83618       -0.16375
N         -3.45939       -1.01001       -0.20124
