26
14289169_b3lyp_prop_1.log	Energy: -385949.4307774
C         -4.07567       -0.27397        0.99745
C         -3.38947       -0.54531       -0.35505
C         -1.88994       -0.45817       -0.27781
C         -1.08481       -1.53213       -0.25039
C          0.38342       -1.43338       -0.13891
O          1.07335       -2.43721       -0.11493
C          0.99515       -0.05893       -0.05317
C          0.20347        1.04798       -0.09076
C         -1.27444        0.90730       -0.22106
O         -1.98114        1.90294       -0.29070
C          0.72419        2.45036       -0.01966
H         -3.75419       -0.99605        1.75273
H         -5.16033       -0.35551        0.89133
H         -3.84657        0.73032        1.35741
H         -3.66511       -1.54014       -0.71517
H         -3.74769        0.18487       -1.08573
H          0.27877        2.97978        0.82758
H          1.80836        2.46332        0.07665
H          0.43350        3.00984       -0.91348
H         -1.47267       -2.54452       -0.30456
C          2.40807       -0.00702        0.06126
C          3.61170       -0.00592        0.15593
C          5.06117       -0.02133        0.26883
H          5.38581        0.43339        1.20962
H          5.44096       -1.04611        0.23817
H          5.52436        0.53802       -0.54953
