22
14289169_b3lyp_2.log	Energy: -371365.8387427
C         -3.63670       -0.22931        0.91283
C         -2.91475       -0.51150       -0.41904
C         -1.41732       -0.44605       -0.29612
C         -0.62877       -1.53313       -0.24158
C          0.83549       -1.45996       -0.08551
O          1.52155       -2.46347       -0.03734
C          1.45054       -0.09564        0.01554
C          0.70004        1.03104       -0.04556
C         -0.78824        0.90925       -0.22462
O         -1.46428        1.91878       -0.31929
C          1.24357        2.42004        0.04253
H         -3.34781       -0.95471        1.67774
H         -4.71809       -0.29751        0.77307
H         -3.40760        0.77249        1.27977
H         -3.19281       -1.50245       -0.78688
H          0.77763        2.95271        0.87636
H          2.32474        2.42365        0.17015
H          0.98223        2.98186       -0.85858
H         -3.24006        0.22213       -1.16146
H         -1.03144       -2.53879       -0.30603
C          2.87004       -0.04690        0.17805
N          4.01593        0.01016        0.30997
