21
152386883_b3lyp_prop_2.log	Energy: -394484.6668647
C         -2.05288       -1.86804        0.34719
C         -2.76058       -0.75482        0.12932
C         -2.10365        0.51990       -0.24569
O         -2.77142        1.51721       -0.47662
C         -0.62061        0.54433       -0.34174
C          0.11028       -0.58219       -0.12411
C         -0.57666       -1.88249        0.22756
O          0.05645       -2.90381        0.40500
C          0.01401        1.87061       -0.70677
C          0.63667        2.53513        0.43978
N          1.12873        3.06217        1.33927
H          0.78140        1.72077       -1.47177
H         -0.75633        2.53194       -1.10998
H         -2.51055       -2.81374        0.61489
H         -3.84163       -0.72124        0.20449
C          1.52116       -0.60696       -0.20436
C          2.72782       -0.62809       -0.25153
C          4.17906       -0.65817       -0.29103
H          4.53988       -0.60641       -1.32272
H          4.59844        0.19137        0.25538
H          4.55977       -1.58016        0.15600
