17
152386883_b3lyp_1.log	Energy: -379897.1985176
C         -1.96381        1.52238        0.37208
C         -0.85505        2.23276        0.13398
C          0.40404        1.58264       -0.28960
O          1.38996        2.23359       -0.58169
C          0.43564        0.08429       -0.37682
C         -0.69292       -0.62464       -0.14677
C         -1.98558        0.04906        0.23590
O         -2.99379       -0.59774        0.42618
C          1.76500       -0.54009       -0.74093
C          2.66291       -0.59198        0.41516
N          3.35873       -0.63973        1.33224
H         -2.90170        1.97798        0.66849
H          1.62362       -1.55372       -1.12192
H          2.24456        0.06270       -1.51686
H         -0.82083        3.31298        0.21828
C         -0.72442       -2.04948       -0.25003
N         -0.72871       -3.19976       -0.34963
