21
152386883_b3lyp_prop_1.log	Energy: -394484.0571765
C          0.78542        1.74152        0.20618
C          1.06025        0.43569       -0.02489
C         -0.05629       -0.50759       -0.40163
O          0.16022       -1.66813       -0.68558
C         -1.45010        0.03631       -0.43801
C         -1.67803        1.33680       -0.20954
C         -0.58013        2.28127        0.11746
O         -0.81555        3.46498        0.30957
C         -2.55165       -0.95232       -0.76469
C         -2.93046       -1.76375        0.39425
N         -3.24320       -2.38680        1.31200
H         -2.67333        1.76822       -0.24265
H         -3.43787       -0.42019       -1.11844
H         -2.21828       -1.62812       -1.55685
H          1.56459        2.44817        0.46551
C          2.36374       -0.10913        0.05386
C          3.46485       -0.59906        0.12311
C          4.78674       -1.19568        0.20780
H          5.46489       -0.74406       -0.52234
H          5.21772       -1.04523        1.20199
H          4.74116       -2.27040        0.01352
