18
15269886_b3lyp_0.log	Energy: -393132.4509845
C         -1.06951        2.43700        0.05871
C         -0.57809        1.02835        0.00475
C         -1.38039       -0.06639        0.01284
C         -0.82696       -1.45254       -0.05480
O         -1.54242       -2.43361       -0.08472
C          0.64862       -1.58612       -0.06477
C          1.47772       -0.52872       -0.04924
C          0.91701        0.85803       -0.11194
O          1.61746        1.83119       -0.28749
C          2.95013       -0.78991        0.03955
O          3.79380        0.02151        0.31181
H         -2.15511        2.48609        0.12114
H         -0.72846        2.98400       -0.82447
H         -0.63188        2.95196        0.91904
H          1.02190       -2.60652       -0.06284
H          3.20846       -1.85561       -0.13908
C         -2.80431        0.04390        0.08152
N         -3.95298        0.14653        0.13854
