22
15269886_b3lyp_prop_0.log	Energy: -407717.2478205
C         -0.59628        2.43651        0.01977
C         -0.10028        1.02503       -0.01451
C         -0.92021       -0.06446       -0.01276
C         -0.34393       -1.44749       -0.07120
O         -1.04075       -2.44418       -0.10685
C          1.13326       -1.57662       -0.06899
C          1.95800       -0.51715       -0.04260
C          1.38499        0.86784       -0.10129
O          2.09521        1.84371       -0.24688
C          3.42664       -0.78008        0.05761
O          4.27749        0.02299        0.33672
H         -1.68164        2.47180        0.09114
H         -0.27387        2.97235       -0.87759
H         -0.15746        2.97287        0.86600
H          1.50969       -2.59608       -0.06674
H          3.68104       -1.84774       -0.12121
C         -2.33551        0.02017        0.03300
C         -3.54189        0.04550        0.06856
C         -4.99483        0.06382        0.11155
H         -5.40442        0.61874       -0.73768
H         -5.39568       -0.95278        0.07935
H         -5.35300        0.54226        1.02793
