22
15269886_b3lyp_prop_1.log	Energy: -407717.4917183
C         -3.70388       -0.92399        0.12008
C         -2.21549       -0.78188        0.05428
C         -1.36232       -1.81896        0.10056
C          0.09706       -1.66130        0.01345
O          0.84216       -2.62250        0.00710
C          0.64941       -0.24918       -0.05024
C         -0.20309        0.81581       -0.07453
C         -1.68049        0.60912       -0.13175
O         -2.44574        1.52452       -0.36714
C          0.35039        2.20319       -0.05265
O         -0.21861        3.16400        0.40299
H         -3.99380       -1.96966        0.22714
H         -4.16706       -0.51008       -0.77929
H         -4.10613       -0.35163        0.96087
H          1.37356        2.28605       -0.46653
H         -1.70789       -2.84349        0.19278
C          2.05934       -0.13757       -0.03990
C          3.26706       -0.11549       -0.02142
C          4.71857       -0.08911        0.00093
H          5.08626        0.65345        0.71479
H          5.11955       -1.06706        0.27991
H          5.11364        0.17041       -0.98603
