24
15321799_b3lyp_prop_3.log	Energy: -385186.3221692
C         -3.48867       -1.11089       -0.22167
C         -3.21158        0.39081        0.06510
C         -1.70954        0.46733        0.01966
C         -1.13850       -0.75150        0.02908
C         -2.16005       -1.85694        0.08225
C          0.32500       -0.94050        0.03449
O          0.83418       -2.04503        0.06634
C          1.16972        0.32093        0.00042
C          0.56926        1.53530       -0.01011
C         -0.89962        1.70392        0.00965
O         -1.41057        2.81590        0.01723
H         -3.74157       -1.23715       -1.27739
H         -3.68496        1.06536       -0.65187
H         -2.15885       -2.31580        1.07838
H          1.14971        2.45029       -0.03065
H         -4.32606       -1.49824        0.36035
H         -3.56713        0.69796        1.05626
H         -1.94237       -2.66028       -0.62508
C          2.57648        0.15714       -0.01522
C          3.77210       -0.00947       -0.02685
C          5.21070       -0.21616       -0.04077
H          5.68546        0.28607        0.80741
H          5.45167       -1.28110        0.01476
H          5.65343        0.18610       -0.95693
