24
15321799_b3lyp_prop_0.log	Energy: -385182.3533086
C         -1.46650       -0.00017        0.69797
C         -0.63863       -1.24043        0.22771
C          0.74683       -0.67375        0.08776
C          0.74675        0.67371        0.08781
C         -0.63876        1.24022        0.22783
C          1.99100        1.45463       -0.07969
O          2.00097        2.67540       -0.09597
C          3.24946        0.67002       -0.22916
C          3.24954       -0.66975       -0.22918
C          1.99117       -1.45452       -0.07973
O          2.00129       -2.67529       -0.09601
H         -1.44825       -0.00023        1.79402
H         -0.69299       -2.07499        0.92914
H         -0.99500       -1.61539       -0.73830
H         -0.99520        1.61522       -0.73814
H         -0.69319        2.07472        0.92934
H          4.15735        1.25304       -0.33974
H          4.15749       -1.25267       -0.33976
C         -2.85742       -0.00018        0.26110
C         -4.00670       -0.00012       -0.10078
C         -5.39799        0.00012       -0.53741
H         -6.07862       -0.06202        0.31662
H         -5.63696        0.91349       -1.08982
H         -5.60515       -0.85072       -1.19289
