24
15321799_b3lyp_prop_1.log	Energy: -385180.3963186
C         -0.72260       -1.93607       -1.18721
C         -1.07752       -0.41439       -1.08957
C          0.21746        0.16373       -0.53787
C          1.01771       -0.79163       -0.03020
C          0.42845       -2.16790       -0.17680
C          2.30556       -0.46251        0.62065
O          3.03309       -1.31798        1.09937
C          2.67536        0.98000        0.66402
C          1.88372        1.92671        0.14247
C          0.58799        1.59436       -0.51713
O         -0.10233        2.46278       -1.02479
H         -0.36516       -2.14430       -2.19892
H         -1.30334        0.00544       -2.07462
H          0.06448       -2.52189        0.79478
H          1.16204       -2.90062       -0.51984
H          3.62262        1.20945        1.13988
H          2.14395        2.97949        0.16183
H         -1.59068       -2.56704       -1.00007
C         -2.20221       -0.13139       -0.19290
C         -3.12520        0.09285        0.54790
C         -4.24509        0.38043        1.43586
H         -4.72027        1.32922        1.17056
H         -5.00590       -0.40340        1.37795
H         -3.91553        0.45021        2.47654
