20
15699186_b3lyp_prop_1.log	Energy: -406960.4571401
C         -0.42551        1.51743        0.00001
C         -1.04658        0.31029       -0.00000
C         -0.24878       -0.98933       -0.00000
O         -0.77928       -2.08019       -0.00003
C          1.19554       -0.77261       -0.00001
C          1.82833        0.44174       -0.00000
C          1.04658        1.69182       -0.00001
O          1.56030        2.79905        0.00002
C          3.22895        0.16989       -0.00004
C          3.32992       -1.18914        0.00002
O          2.10038       -1.77804        0.00004
H          4.03600        0.88413       -0.00007
H          4.16745       -1.86643        0.00004
H         -1.00129        2.43539        0.00001
C         -2.45603        0.17922       -0.00000
C         -3.65505        0.03867       -0.00001
C         -5.09749       -0.13694        0.00001
H         -5.54627        0.32604        0.88391
H         -5.54636        0.32631       -0.88369
H         -5.36002       -1.19815       -0.00011
