20
15699186_b3lyp_prop_2.log	Energy: -406959.2873532
C          1.73745        2.01944        0.00001
C          2.79223        1.19066       -0.00000
C          2.65644       -0.29691       -0.00006
O          3.62192       -1.03930       -0.00001
C          1.26241       -0.74232       -0.00003
C          0.16149        0.07376       -0.00001
C          0.31983        1.53980       -0.00003
O         -0.61003        2.32528        0.00003
C         -0.98999       -0.79324        0.00004
C         -0.46320       -2.06313        0.00002
O          0.89366       -2.04220       -0.00002
H         -0.92432       -3.03624        0.00004
H          1.85587        3.09747        0.00005
H          3.81269        1.55780        0.00002
C         -2.36116       -0.44885        0.00010
C         -3.52931       -0.15003        0.00013
C         -4.93097        0.23767       -0.00012
H         -5.44663       -0.15003        0.88339
H         -5.02777        1.32689        0.00158
H         -5.44553       -0.14716       -0.88550
