16
15699186_b3lyp_0.log	Energy: -392374.9207346
C          1.00697        1.44162       -0.00001
C          1.53979        0.20123       -0.00000
C          0.68667       -1.05614       -0.00000
O          1.17299       -2.16539       -0.00000
C         -0.74168       -0.75857        0.00000
C         -1.30853        0.49057       -0.00002
C         -0.46654        1.69570       -0.00003
O         -0.90277        2.83144        0.00001
C         -2.72166        0.29446        0.00004
C         -2.89462       -1.05716       -0.00002
O         -1.69818       -1.71056        0.00001
H          1.63346        2.32613       -0.00001
H         -3.48960        1.05049        0.00007
H         -3.76683       -1.68913       -0.00004
C          2.95535        0.00887        0.00001
N          4.10173       -0.12785        0.00001
