15
17981306_b3lyp_0.log	Energy: -605092.4710343
C         -2.24951       -0.51158        0.19945
C         -1.59941        0.65092        0.00106
C         -0.11964        0.68996       -0.27619
O          0.44062        1.72198       -0.55515
C          0.60046       -0.62586       -0.20773
C         -0.05985       -1.77786       -0.00663
C         -1.53003       -1.80686        0.18708
O         -2.12291       -2.85703        0.35188
S          2.34740       -0.67398       -0.59890
C          2.96761        0.49753        0.47081
N          3.48982        1.24159        1.18718
H         -3.31791       -0.55363        0.37566
H          0.44175       -2.73802        0.03405
C         -2.28486        1.90404        0.01326
N         -2.85732        2.90612        0.02886
