25
18771_b3lyp_0.log	Energy: -1057141.8160751
S         -1.47561        1.66074       -0.81960
S         -2.02060       -1.66336       -0.72113
O          1.31153        2.21551       -0.50566
O          0.47194       -3.04767       -0.26924
N         -4.48104        2.60167        1.04536
N         -5.15019       -1.49255        1.16757
C          2.25668        0.09850        0.01571
C          2.02610       -1.28556        0.06037
C         -0.22701        0.44150       -0.47727
C         -0.44565       -0.88713       -0.43458
C          1.14132        1.02829       -0.32107
C          0.67021       -1.85007       -0.20732
C          3.55503        0.58479        0.27098
C          3.06301       -2.17372        0.34862
C          4.58455       -0.32045        0.57266
C          4.33933       -1.68814        0.60898
C         -2.88451        0.89184       -0.03780
C         -3.10410       -0.44330        0.00235
C         -3.77151        1.81811        0.57762
C         -4.23373       -1.00147        0.66240
H          2.84789       -3.23471        0.36607
H          5.57552        0.06600        0.77542
H          5.14617       -2.37291        0.84040
C          3.90550        1.97435        0.25569
N          4.32418        3.05025        0.28492
