29
18771_b3lyp_prop_2.log	Energy: -1071730.3435157
S          2.09476       -1.72262       -0.86849
S          2.64407        1.58986       -0.59803
O         -0.71934       -2.27991       -0.65976
O          0.15776        2.98591       -0.25143
N          4.98962       -2.76142        1.11599
N          5.66579        1.31661        1.44910
C         -1.66759       -0.14986       -0.19301
C         -1.43481        1.23190       -0.08822
C          0.83009       -0.51067       -0.54543
C          1.04972        0.81416       -0.44012
C         -0.54802       -1.09139       -0.46814
C         -0.07134        1.79031       -0.24438
C         -2.95636       -0.65663       -0.05795
C         -2.50856        2.09363        0.15150
C         -4.03748        0.20445        0.19431
C         -3.79179        1.58842        0.29630
C          3.45985       -0.99801        0.02185
C          3.68054        0.33359        0.13017
C          4.30947       -1.95392        0.64510
C          4.77514        0.85556        0.87413
H         -4.62141        2.25740        0.48880
H         -3.11525       -1.72330       -0.14874
H         -2.31797        3.15725        0.22343
C         -5.35485       -0.31355        0.34276
C         -6.47175       -0.75397        0.46885
C         -7.81671       -1.28689        0.62058
H         -8.48917       -0.86897       -0.13426
H         -7.82140       -2.37485        0.51401
H         -8.22451       -1.04048        1.60525
