19
20443080_b3lyp_prop_0.log	Energy: -427696.5944181
O         -2.05522        1.92541        0.00097
O          0.66507       -2.66362       -0.00383
N          1.25272        3.16633       -0.00297
N         -4.69805       -0.45235        0.00319
C          0.06558        0.87585       -0.00080
C         -2.11558       -0.44161        0.00062
C         -1.42329        0.89252        0.00052
C          0.78857       -0.28723       -0.00134
C         -1.41735       -1.59179       -0.00058
C          0.06191       -1.61097       -0.00195
C          0.71395        2.14473       -0.00181
C         -3.54396       -0.43360        0.00201
H         -1.90081       -2.56164       -0.00070
C          2.19271       -0.32480       -0.00146
C          3.40053       -0.36532       -0.00082
C          4.84954       -0.40510        0.00336
H          5.22370       -0.41799        1.03186
H          5.21566       -1.30331       -0.50077
H          5.26429        0.47465       -0.49561
