13
21099940_b3lyp_0.log	Energy: -367637.7065726
C         -0.77685        1.37565        0.00010
C         -1.33775        0.13934        0.00007
C         -0.53433       -1.15149       -0.00025
O         -1.04474       -2.24075       -0.00099
C          0.92224       -0.85872        0.00034
C          1.47098        0.36809        0.00038
C          0.69541        1.63894       -0.00009
O          1.15312        2.75638       -0.00064
C          2.36865       -0.76956        0.00032
O          3.45188       -1.25468        0.00028
H         -1.40332        2.26157        0.00019
C         -2.76018       -0.00461        0.00029
N         -3.90968       -0.11071        0.00053
