25
223813_b3lyp_prop_3.log	Energy: -409087.6668931
C         -1.00526        2.12476        0.26690
C          0.13958        2.69114       -0.52150
C          1.08322        1.94152       -1.08263
C          1.12021        0.43033       -0.96541
C         -0.20395       -0.13089       -0.47214
C         -1.14679        0.63701        0.11095
C         -2.40779        0.02527        0.62837
O         -3.26906        0.70845        1.15992
C         -2.58885       -1.43986        0.48641
C         -1.66927       -2.19216       -0.12648
C         -0.43640       -1.58893       -0.69165
O          0.34275       -2.26855       -1.33940
H         -1.95049        2.60042       -0.01637
H          1.31487       -0.00822       -1.95215
H         -3.50759       -1.84540        0.89554
H         -1.77781       -3.26218       -0.26494
H         -0.89085        2.36895        1.33271
H          0.18005        3.77182       -0.61821
H          1.90267        2.39548       -1.62955
C          2.21812        0.00917       -0.08006
C          3.12009       -0.31042        0.65109
C          4.21301       -0.71111        1.52842
H          4.61618       -1.68446        1.23452
H          5.03033        0.01513        1.49368
H          3.87749       -0.78568        2.56691
