22
22489347_b3lyp_prop_1.log	Energy: -384420.4621597
C         -0.64342       -1.21243       -0.00004
C         -1.47531        0.05702       -0.00000
C         -0.64477        1.14063        0.00002
C          0.72511        0.67371       -0.00001
C          0.75853       -0.69022       -0.00003
C          2.00946       -1.44430       -0.00000
O          2.06375       -2.66777        0.00003
C          3.25914       -0.62239        0.00001
C          3.24026        0.71824        0.00001
C          1.96522        1.48713        0.00000
O          1.95247        2.70641       -0.00001
H         -0.85485       -1.83743       -0.87535
H         -0.94295        2.17881        0.00004
H          4.18576       -1.18644        0.00001
H          4.14784        1.31203        0.00002
H         -0.85482       -1.83747        0.87525
C         -2.88480        0.05520        0.00000
C         -4.09351        0.02144        0.00000
C         -5.54786       -0.00333        0.00001
H         -5.94735        0.50389       -0.88345
H         -5.92431       -1.02995       -0.00040
H         -5.94731        0.50317        0.88390
