18
22489347_b3lyp_3.log	Energy: -369832.4619400
C          2.75195        0.36834        0.00003
C          2.98371       -1.11750       -0.00009
C          1.80527       -1.77792        0.00006
C          0.73245       -0.79173       -0.00003
C          1.25778        0.46546        0.00004
C          0.42271        1.66293        0.00011
O          0.86221        2.80359       -0.00006
C         -1.05370        1.42742        0.00001
C         -1.59192        0.19072       -0.00002
C         -0.72313       -1.04641       -0.00011
O         -1.20340       -2.16037        0.00003
H          3.19504        0.86285       -0.87381
H          3.19501        0.86270        0.87398
H          3.96725       -1.56738       -0.00014
H          1.65028       -2.84722        0.00011
H         -1.67206        2.31786        0.00002
C         -3.00746       -0.00485       -0.00001
N         -4.15314       -0.14762        0.00001
