15
23115907_b3lyp_0.log	Energy: -402442.8375754
C         -0.97702        1.43609        0.00006
C         -1.52758        0.20259        0.00004
C         -0.69319       -1.06571       -0.00011
O         -1.18294       -2.17127       -0.00003
C          0.73944       -0.77500        0.00001
C          1.31931        0.45961        0.00002
C          0.50024        1.68716        0.00008
O          0.94210        2.81571       -0.00012
N          2.69244        0.32127       -0.00022
C          2.86941       -0.96025        0.00062
O          1.72701       -1.70315       -0.00037
H         -1.59462        2.32686        0.00007
H          3.79785       -1.50896        0.00055
C         -2.94537        0.02843        0.00006
N         -4.09301       -0.09638        0.00006
