15
23115907_b3lyp_1.log	Energy: -402439.7547363
C          2.65191       -0.57694       -0.00017
C          2.58632        0.76452       -0.00011
C          1.30071        1.52376        0.00013
O          1.24413        2.73560       -0.00003
C          0.12741        0.63522        0.00016
C          0.16147       -0.72987        0.00003
C          1.44794       -1.46685        0.00010
O          1.54004       -2.67477        0.00002
N         -1.12390       -1.22011        0.00018
C         -1.85960       -0.14919       -0.00026
O         -1.16540        1.03029        0.00017
H          3.60245       -1.09870       -0.00032
H          3.47871        1.38047       -0.00024
C         -3.27691       -0.07015       -0.00015
N         -4.42852       -0.00756       -0.00005
