23
23162507_b3lyp_1.log	Energy: -395281.7135118
C          2.92789       -2.01016       -0.08755
C          1.98081       -0.85125       -0.04063
C          2.35051        0.42901       -0.23236
C          1.40117        1.56420       -0.17375
O          1.76906        2.71947       -0.31701
C         -0.02515        1.22650        0.06056
C         -0.41650       -0.04675        0.22539
C          0.54166       -1.17101        0.26407
O          0.19277       -2.30120        0.55744
C         -1.90978       -0.14693        0.49059
C         -2.41339        1.30410        0.17147
C         -1.15390        2.20836        0.18573
H          2.62274       -2.72369       -0.85835
H          2.91183       -2.55753        0.85874
H          3.94570       -1.67733       -0.29284
H         -2.07055       -0.40032        1.54575
H         -2.86474        1.31075       -0.82137
H         -3.17611        1.62305        0.88144
H         -1.15109        2.94902       -0.61678
H         -1.05347        2.76911        1.12202
H          3.38155        0.69929       -0.43616
C         -2.60327       -1.16082       -0.30525
N         -3.18868       -1.91572       -0.95078
