23
23162507_b3lyp_0.log	Energy: -395283.5779121
C          2.33992        2.01197        0.03917
C          1.24759        0.99334        0.00805
C          1.44600       -0.34920        0.00328
C          0.30938       -1.33774       -0.02971
O          0.51723       -2.53574       -0.05419
C         -1.05024       -0.76905       -0.02941
C         -1.26802        0.55880       -0.02627
C         -0.16306        1.53126       -0.02371
O         -0.35797        2.73508       -0.04474
C         -2.73498        0.89314       -0.07136
C         -3.40830       -0.47670        0.22032
C         -2.33113       -1.55672       -0.07668
H          2.22697        2.65415        0.91746
H          2.25974        2.67259       -0.82876
H          3.32580        1.55052        0.05356
H         -2.99491        1.28283       -1.06291
H         -3.00675        1.67188        0.64459
H         -3.68852       -0.52541        1.27533
H         -4.31729       -0.62548       -0.36351
H         -2.33706       -2.38466        0.63551
H         -2.45235       -2.00522       -1.07008
C          2.76204       -0.90911        0.02783
N          3.83073       -1.34655        0.04874
