23
24973987_b3lyp_prop_1.log	Energy: -634318.3515262
C          1.71693        3.37537        0.00009
C          1.57037        1.88421       -0.00001
C          2.61736        1.03855        0.00000
C          2.48063       -0.43607        0.00001
O          3.45408       -1.17516        0.00003
C          1.09822       -0.93202       -0.00001
C         -0.01220       -0.11449       -0.00002
C          0.15683        1.35690       -0.00008
O         -0.78505        2.12945       -0.00018
C         -1.24700       -0.85382       -0.00001
C         -0.99843       -2.21332        0.00001
S          0.67824       -2.60777       -0.00001
H          1.22495        3.80936        0.87489
H          1.22363        3.80964       -0.87380
H          2.76788        3.66623       -0.00060
H         -1.73798       -2.99948        0.00003
H          3.64029        1.40118        0.00002
C         -2.55602       -0.30801        0.00000
C         -3.67899        0.13193        0.00003
C         -5.01485        0.70666        0.00006
H         -5.57871        0.39429        0.88415
H         -4.96245        1.79911        0.00007
H         -5.57876        0.39432       -0.88400
