19
24973987_b3lyp_2.log	Energy: -619737.0178102
C          3.93086       -0.98570        0.00007
C          2.58487       -0.32903        0.00002
C          2.41005        1.00702        0.00003
C          1.08578        1.67333        0.00000
O          0.96994        2.88739        0.00005
C         -0.07111        0.75978       -0.00002
C          0.05515       -0.61359       -0.00003
C          1.39404       -1.24905       -0.00002
O          1.53096       -2.45889       -0.00008
C         -1.19130       -1.28456       -0.00006
C         -2.24541       -0.39891        0.00003
S         -1.71718        1.27110       -0.00009
H          4.04149       -1.63288       -0.87437
H          4.04163       -1.63244        0.87483
H          4.73010       -0.24431       -0.00016
H          3.25572        1.68706        0.00005
H         -1.30431       -2.35941       -0.00006
C         -3.62430       -0.71456        0.00008
N         -4.75266       -0.96741        0.00012
