25
265508_b3lyp_prop_2.log	Energy: -443101.7642718
C         -4.86935       -0.24427        0.00024
C         -3.36996       -0.34964        0.00009
C         -2.55214        0.78487        0.00001
C         -1.17083        0.62592       -0.00004
C         -0.63892       -0.66876       -0.00005
C         -1.53725       -1.74289        0.00004
N         -2.85874       -1.59516        0.00012
C          0.82597       -0.91083       -0.00020
O          1.29917       -2.03018       -0.00051
C          1.72071        0.30988        0.00000
C          1.18469        1.55625        0.00007
C         -0.26189        1.81576       -0.00007
O         -0.70014        2.95565       -0.00024
H         -5.27957       -0.75042       -0.87777
H         -5.20361        0.79392       -0.00069
H         -5.27926       -0.74866        0.87942
H          1.81818        2.43570        0.00016
H         -2.97165        1.78317       -0.00002
H         -1.15277       -2.75752        0.00005
C          3.11788        0.08376       -0.00001
C          4.30599       -0.13059       -0.00006
C          5.73438       -0.39612        0.00012
H          6.19865       -0.02126        0.91722
H          5.93104       -1.46926       -0.06799
H          6.22232        0.09654       -0.84608
