33
2764161_b3lyp_prop_0.log	Energy: -587375.3396215
C         -3.70891        0.21700       -0.00000
C         -3.41300        1.59605        0.00025
C         -2.09974        2.03603        0.00044
C         -1.04211        1.11954        0.00051
C         -1.32550       -0.25919        0.00054
C         -2.64763       -0.69961        0.00031
C         -0.23056       -1.27570        0.00076
O         -0.47195       -2.47089        0.00124
C          1.17261       -0.76912        0.00032
C          1.45233        0.60869        0.00016
C          0.35634        1.62493        0.00051
O          0.60555        2.82030        0.00070
C          2.77612        1.04690       -0.00030
C          3.83040        0.13456       -0.00064
C          3.54680       -1.23514       -0.00042
C          2.22980       -1.68092        0.00007
C          5.25313        0.68015       -0.00140
C          6.30277       -0.33450       -0.00037
N          7.13254       -1.13447        0.00038
H         -4.22797        2.30958        0.00026
H         -1.86678        3.09366        0.00057
H         -2.84182       -1.76432        0.00037
H          2.95750        2.11621       -0.00040
H          4.35717       -1.95499       -0.00062
H          2.00156       -2.73955        0.00026
H          5.40245        1.31924       -0.87833
H          5.40264        1.32127        0.87400
C         -5.05950       -0.23684       -0.00087
C         -6.20302       -0.62356       -0.00153
C         -7.57928       -1.09640       -0.00115
H         -7.94858       -1.22048        1.02141
H         -8.23819       -0.38897       -0.51232
H         -7.66094       -2.06280       -0.50645
