29
2764161_b3lyp_2.log	Energy: -572788.1967636
C          4.35408        0.43242        0.00012
C          4.04078        1.78773        0.00011
C          2.71266        2.19151        0.00004
C          1.68849        1.24077       -0.00002
C          1.98720       -0.13378       -0.00003
C          3.34023       -0.53623        0.00005
C          0.88907       -1.15067       -0.00013
O          1.13442       -2.34205       -0.00025
C         -0.51607       -0.65310       -0.00007
C         -0.81141        0.71982       -0.00005
C          0.27540        1.73585       -0.00007
O          0.03135        2.93027       -0.00012
C         -2.13934        1.14675       -0.00002
C         -3.18346        0.22334        0.00001
C         -2.88406       -1.14360       -0.00001
C         -1.56310       -1.57687       -0.00005
C         -4.61223        0.75225        0.00004
C         -5.64890       -0.27545        0.00010
N         -6.46729       -1.08692        0.00017
H          5.38692        0.10681        0.00018
H         -2.33213        2.21394       -0.00002
H         -3.68669       -1.87202        0.00002
H         -1.32476       -2.63317       -0.00007
H         -4.76862        1.39061        0.87625
H         -4.76868        1.39056       -0.87619
H          4.83618        2.52338        0.00016
H          2.44039        3.23945        0.00003
C          3.77184       -1.90436        0.00008
N          4.27929       -2.94217        0.00013
