33
2764161_b3lyp_prop_5.log	Energy: -587375.1319329
C          5.25940       -0.95965       -0.29195
C          5.35981        0.42505       -0.13023
C          4.21371        1.19240        0.04067
C          2.95500        0.58346        0.05038
C          2.85385       -0.81049       -0.11259
C          4.01288       -1.57414       -0.28266
C          1.52999       -1.49811       -0.10663
O          1.43942       -2.70698       -0.23802
C          0.31545       -0.64480        0.06652
C          0.41952        0.74659        0.22525
C          1.74250        1.43247        0.23595
O          1.82794        2.64023        0.39104
C         -0.74212        1.50753        0.38211
C         -1.99735        0.91567        0.38595
C         -2.10692       -0.48891        0.22941
C         -0.93985       -1.24825        0.07158
C         -3.23939        1.77106        0.57163
C         -3.99021        1.97827       -0.66961
N         -4.58325        2.15581       -1.64211
H         -1.00333       -2.32201       -0.04837
H         -3.91360        1.30524        1.29688
H         -2.95953        2.75102        0.96606
H          6.15480       -1.55604       -0.42501
H          6.33311        0.90231       -0.13820
H          4.26865        2.26646        0.16769
H          3.91199       -2.64539       -0.40538
H         -0.63513        2.57958        0.50093
C         -3.37998       -1.12678        0.23155
C         -4.46572       -1.65470        0.21979
C         -5.77388       -2.28979        0.18662
H         -6.15472       -2.45641        1.19873
H         -6.49469       -1.66430       -0.34742
H         -5.72379       -3.25862       -0.31765
