29
2764161_b3lyp_3.log	Energy: -572788.0829635
C          4.92377       -0.42790        0.00011
C          4.72837        0.95641        0.00006
C          3.44150        1.48089       -0.00002
C          2.33582        0.62437       -0.00004
C          2.53283       -0.76717        0.00001
C          3.83124       -1.28644        0.00007
C          1.37677       -1.70067       -0.00002
O          1.52712       -2.91010       -0.00005
C          0.00249       -1.10406       -0.00003
C         -0.19989        0.28471       -0.00003
C          0.97018        1.22029       -0.00014
O          0.80613        2.42612       -0.00030
C         -1.51727        0.78935        0.00002
C         -2.61933       -0.09334        0.00006
C         -2.38592       -1.46870        0.00003
C         -1.09215       -1.96903        0.00000
C         -4.02770        0.48302        0.00014
C         -5.08828       -0.51910        0.00003
N         -5.92653       -1.30991       -0.00017
H          5.92918       -0.83285        0.00017
H         -3.22708       -2.15153        0.00005
H         -0.90653       -3.03581       -0.00000
H         -4.16536        1.13234        0.87141
H         -4.16537        1.13259       -0.87093
H          5.58248        1.62377        0.00009
H          3.26906        2.54986       -0.00006
H          3.95891       -2.36177        0.00010
C         -1.81848        2.19153        0.00007
N         -2.25988        3.25995        0.00016
