29
2764161_b3lyp_4.log	Energy: -572791.4601555
C         -4.97064        0.28334       -0.00001
C         -4.78246       -1.10172       -0.00009
C         -3.49785       -1.63196       -0.00010
C         -2.38751       -0.78192       -0.00004
C         -2.57714        0.61298        0.00005
C         -3.87375        1.13666        0.00006
C         -1.42057        1.55065        0.00014
O         -1.57082        2.75993        0.00030
C         -0.05067        0.94933        0.00003
C          0.14234       -0.43857       -0.00005
C         -1.02326       -1.38044       -0.00006
O         -0.84974       -2.58571       -0.00010
C          1.43683       -0.96867       -0.00014
C          2.54927       -0.13858       -0.00015
C          2.34596        1.26234       -0.00006
C          1.05724        1.79579        0.00003
C          3.97325       -0.67174       -0.00031
C          4.07904       -2.12690        0.00026
N          4.17357       -3.27520        0.00052
H         -5.97390        0.69361       -0.00001
H          0.90136        2.86710        0.00012
H          4.51281       -0.28893       -0.87379
H          4.51332       -0.28814        0.87250
H         -5.63987       -1.76485       -0.00014
H         -3.33035       -2.70183       -0.00015
H         -3.99728        2.21251        0.00013
H          1.54863       -2.04648       -0.00018
C          3.47207        2.14631       -0.00007
N          4.39741        2.83832       -0.00010
