33
2764161_b3lyp_prop_3.log	Energy: -587370.4287638
C          3.93910       -1.29964        0.00269
C          3.42224       -2.58720        0.00324
C          2.04627       -2.78303        0.00231
C          1.18628       -1.68475        0.00086
C          1.69410       -0.36626        0.00035
C          3.09967       -0.16820        0.00127
C          0.75611        0.79475       -0.00099
O          1.14847        1.94847       -0.00104
C         -0.71264        0.50646       -0.00227
C         -1.20958       -0.80490       -0.00190
C         -0.28196       -1.96775       -0.00020
O         -0.70539       -3.11256        0.00021
C         -2.58650       -1.03170       -0.00294
C         -3.48238        0.03511       -0.00453
C         -2.98329        1.34236       -0.00478
C         -1.61265        1.57429       -0.00365
C         -4.97428       -0.27589       -0.00753
C         -5.84801        0.89365        0.00561
N         -6.53937        1.81586        0.01561
H         -2.93391       -2.05908       -0.00244
H         -3.66893        2.18199       -0.00550
H         -1.21988        2.58330       -0.00372
H         -5.22503       -0.87360       -0.89057
H         -5.22459       -0.89339        0.86178
H          5.01043       -1.14083        0.00336
H          4.09429       -3.43771        0.00437
H          1.61487       -3.77581        0.00268
C          3.73290        1.10656        0.00081
C          4.38292        2.12354        0.00028
C          5.08903        3.39426       -0.00042
H          5.73002        3.48817        0.88148
H          5.72655        3.48899       -0.88470
H          4.38302        4.22964        0.00135
