33
2764161_b3lyp_prop_4.log	Energy: -587370.7275274
C          5.11457       -0.11232       -0.00034
C          4.75964        1.24021       -0.00034
C          3.42071        1.61147       -0.00016
C          2.41966        0.63425        0.00001
C          2.77797       -0.72244        0.00002
C          4.12784       -1.08973       -0.00014
C          1.73460       -1.77920        0.00024
O          2.02795       -2.96357        0.00034
C          0.30281       -1.34282        0.00012
C         -0.06850        0.01704        0.00015
C          0.98950        1.07426        0.00020
O          0.71850        2.26246        0.00053
C         -1.44481        0.36423        0.00010
C         -2.41643       -0.66885       -0.00004
C         -2.01742       -2.00198       -0.00009
C         -0.67101       -2.33872        0.00000
C         -3.88532       -0.27742       -0.00015
C         -4.81855       -1.39955       -0.00018
N         -5.56495       -2.27803       -0.00021
H         -2.76646       -2.78517       -0.00019
H         -0.35282       -3.37334        0.00000
H         -4.10067        0.35048        0.87088
H         -4.10055        0.35042       -0.87126
H          6.16014       -0.39863       -0.00047
H          5.53080        2.00220       -0.00049
H          3.12553        2.65318       -0.00015
H          4.37648       -2.14371       -0.00011
C         -1.91067        1.70959        0.00016
C         -2.42274        2.80338       -0.00002
C         -2.93651        4.16372       -0.00009
H         -3.55503        4.35220        0.88255
H         -2.11340        4.88394        0.00119
H         -3.55290        4.35288       -0.88406
