29
297370_b3lyp_prop_0.log	Energy: -410625.2675023
C         -2.58615        2.36246        0.75106
C         -1.95694        1.77523       -0.52842
C         -0.65790        1.07120       -0.25701
C         -0.55502       -0.27144       -0.05405
C          0.77329       -0.91713        0.24355
O          0.85328       -2.11470        0.44620
C          1.99610       -0.05353        0.30125
C          1.86397        1.26928        0.11397
C          0.56873        1.91535       -0.17833
O          0.51223        3.12506       -0.35791
C          3.31440       -0.72991        0.56076
C          3.87342       -1.45114       -0.68036
H         -2.79908        1.57633        1.47979
H         -3.52587        2.86622        0.51036
H         -1.92041        3.09416        1.21304
H         -2.65402        1.07316       -0.99001
H         -1.76978        2.58805       -1.23394
H          2.71391        1.94322        0.15922
H          4.03090        0.02127        0.90416
H          3.18505       -1.45867        1.36539
H          4.03194       -0.74953       -1.50364
H          4.83307       -1.91740       -0.44340
H          3.19249       -2.23409       -1.01836
C         -1.67304       -1.14544       -0.09878
C         -2.60586       -1.91136       -0.12576
C         -3.71954       -2.84580       -0.15610
H         -4.04588       -3.02986       -1.18427
H         -3.43257       -3.80525        0.28288
H         -4.57652       -2.45716        0.40183
