31
346879_b3lyp_1.log	Energy: -539575.4678041
C          4.81074       -1.66171       -0.02143
C          3.49074       -0.93465        0.00449
C          2.28137       -1.62760        0.00574
C          1.05878       -0.95455        0.00265
C          1.01215        0.44968        0.00020
C          2.23175        1.15958        0.00319
C          3.44587        0.46190        0.00675
C         -0.29639        1.16942       -0.00291
O         -0.34585        2.38613       -0.00722
C         -1.54018        0.34516       -0.00159
C         -1.49034       -1.05725        0.00254
C         -0.19457       -1.77846        0.00629
O         -0.13718       -2.99736        0.01183
C         -2.68621       -1.78460        0.00315
C         -3.90487       -1.12398       -0.00031
C         -3.97135        0.27994       -0.00427
C         -2.77641        0.99771       -0.00500
C         -5.30510        0.98218       -0.00595
H          4.71894       -2.66482        0.39845
H          5.57468       -1.12041        0.54065
H          5.17188       -1.76543       -1.05015
H          4.36784        1.03201        0.01295
H         -2.63454       -2.86640        0.00614
H         -4.82474       -1.70009       -0.00013
H         -2.78120        2.08130       -0.00840
H         -5.90289        0.68593       -0.87318
H         -5.88288        0.72628        0.88755
H         -5.18515        2.06606       -0.03152
H          2.26145       -2.71116        0.01114
C          2.32740        2.59149        0.00663
N          2.57435        3.72016        0.00980
