31
346879_b3lyp_0.log	Energy: -539575.4682941
C          4.92553        0.31244       -0.00094
C          3.45309        0.62306       -0.00063
C          2.48611       -0.40828       -0.00023
C          1.10727       -0.10533        0.00023
C          0.70056        1.23895        0.00034
C          1.65678        2.25640       -0.00002
C          3.00779        1.94845       -0.00057
C         -0.74365        1.62750        0.00079
O         -1.07329        2.80232        0.00134
C         -1.75110        0.53402        0.00039
C         -1.35002       -0.81033        0.00032
C          0.08567       -1.20134        0.00071
O          0.42055       -2.37215        0.00123
C         -2.32671       -1.81280        0.00035
C         -3.67200       -1.47738        0.00032
C         -4.08871       -0.13510        0.00014
C         -3.11111        0.85805        0.00042
C         -5.55613        0.21006       -0.00222
H          5.20408       -0.27880        0.87603
H          5.51391        1.23043       -0.00189
H          5.20357       -0.28057       -0.87630
H          1.31443        3.28380        0.00017
H          3.74086        2.74730       -0.00101
H         -2.00705       -2.84753        0.00067
H         -4.41784       -2.26591        0.00069
H         -3.38579        1.90634        0.00087
H         -6.04853       -0.18205       -0.89741
H         -6.06302       -0.22728        0.86317
H         -5.71191        1.28941        0.02360
C          2.99177       -1.75076       -0.00034
N          3.56978       -2.75174       -0.00051
