22
388306_b3lyp_prop_4.log	Energy: -418417.9946576
C          1.06971       -1.68678       -0.00022
C         -0.29565       -1.89541       -0.00012
C         -1.14940       -0.78761       -0.00006
C         -0.57044        0.49210       -0.00020
C         -1.45935        1.71482       -0.00005
O         -1.01856        2.84471       -0.00018
C         -2.92634        1.47552        0.00027
C         -3.46279        0.24742        0.00036
C         -2.62659       -0.97555        0.00018
O         -3.13591       -2.08462        0.00025
N          0.74384        0.70393       -0.00042
C          1.55928       -0.36279       -0.00042
H          1.76712       -2.51480       -0.00015
H         -0.72197       -2.89153        0.00001
H         -3.53781        2.37147        0.00040
H         -4.53488        0.08295        0.00057
C          2.96609       -0.12055       -0.00056
C          4.15839        0.06288       -0.00062
C          5.59175        0.30738        0.00047
H          6.03355        0.02300        0.96017
H          6.08878       -0.27338       -0.78190
H          5.80614        1.36556       -0.17100
