22
4055_b3lyp_4.log	Energy: -418452.6038310
C          2.89041       -2.17830        0.00033
C          2.01363       -0.96451        0.00005
C          2.48659        0.29511       -0.00003
C          1.61907        1.48451       -0.00073
O          2.09401        2.60875        0.00048
C          0.13789        1.26568       -0.00024
C         -0.70576        2.37701       -0.00009
C         -2.08436        2.20262        0.00009
C         -2.62268        0.92032        0.00013
C         -1.78744       -0.20725        0.00001
C         -0.38710       -0.03673       -0.00011
C          0.53610       -1.21397       -0.00003
O          0.11167       -2.35420       -0.00051
H          3.94451       -1.89994        0.00047
H          2.68205       -2.80136       -0.87369
H          2.68174       -2.80113        0.87443
H          3.55196        0.50172        0.00025
H         -0.25916        3.36364       -0.00020
H         -2.74417        3.06206        0.00016
H         -3.69579        0.77497        0.00026
C         -2.44111       -1.48376        0.00013
N         -3.10542       -2.42870        0.00021
