26
4055_b3lyp_prop_0.log	Energy: -433038.0563811
C         -1.64729        2.53328       -0.00045
C         -0.75079        1.33399       -0.00072
C         -1.20853        0.04911       -0.00050
C         -0.26494       -1.12481       -0.00225
O         -0.69104       -2.26457       -0.00333
C          1.19801       -0.84173       -0.00063
C          2.10516       -1.90443        0.00023
C          3.47255       -1.64967        0.00154
C          3.94134       -0.33338        0.00189
C          3.04288        0.72836        0.00097
C          1.66814        0.47907       -0.00028
C          0.71117        1.62089       -0.00135
O          1.10716        2.77766        0.00008
H         -2.69644        2.24430        0.00233
H         -1.44379        3.15722       -0.87551
H         -1.43971        3.15995        0.87165
H          1.72003       -2.91661       -0.00015
H          4.17543       -2.47502        0.00225
H          5.00778       -0.13853        0.00286
H          3.38408        1.75619        0.00114
C         -2.59091       -0.27401        0.00021
C         -3.75746       -0.58462        0.00084
C         -5.15831       -0.97380        0.00153
H         -5.53503       -1.06358        1.02512
H         -5.77558       -0.23655       -0.51976
H         -5.29174       -1.94153       -0.49003
