26
4055_b3lyp_prop_1.log	Energy: -433034.6836081
C         -3.89728       -1.69489        0.00020
C         -2.50841       -1.13305        0.00011
C         -1.39594       -1.88701        0.00024
C         -0.01729       -1.34680        0.00006
O          0.92515       -2.12305        0.00000
C          0.14924        0.13567       -0.00000
C          1.42793        0.74555        0.00009
C          1.49940        2.15332        0.00024
C          0.35471        2.93716        0.00025
C         -0.90050        2.33721        0.00007
C         -1.00414        0.94713       -0.00004
C         -2.37772        0.35257       -0.00025
O         -3.37422        1.05790       -0.00063
H         -3.87900       -2.78532        0.00061
H         -4.45269       -1.34524       -0.87441
H         -4.45287       -1.34458        0.87442
H          2.47874        2.61591        0.00036
H          0.44206        4.01766        0.00039
H         -1.80980        2.92477        0.00001
H         -1.44659       -2.97138        0.00044
C          2.65642        0.02654        0.00005
C          3.75047       -0.48285       -0.00008
C          5.02879       -1.17518       -0.00026
H          5.61923       -0.91152        0.88255
H          4.88100       -2.25895        0.00036
H          5.61852       -0.91242       -0.88382
