22
45082930_b3lyp_prop_1.log	Energy: -407717.0940744
C          2.64849       -2.54892        0.15231
C          1.86048       -1.27781        0.05955
C          2.41006       -0.05284        0.02112
C          1.62211        1.19229       -0.11854
O          2.18703        2.25374       -0.31066
C          0.13376        1.08110       -0.07172
C         -0.45998       -0.14658       -0.05948
C          0.37703       -1.41098       -0.00885
O         -0.15528       -2.50299       -0.01504
C         -0.70972        2.31380       -0.04390
O         -0.37398        3.36194        0.44850
H          3.71808       -2.34165        0.19632
H          2.44330       -3.19256       -0.70732
H          2.35718       -3.11822        1.03928
H         -1.71339        2.18584       -0.49307
H          3.48540        0.09230        0.04164
C         -1.86178       -0.34408       -0.05099
C         -3.04704       -0.57604       -0.03480
C         -4.47215       -0.85439       -0.01501
H         -4.97164       -0.27898        0.76977
H         -4.93110       -0.58483       -0.97106
H         -4.65763       -1.91668        0.16384
