22
45082930_b3lyp_prop_0.log	Energy: -407717.3592084
C         -1.37898        2.56657        0.08034
C         -0.36819        1.46432        0.01566
C         -0.68250        0.13752       -0.01482
C          0.38522       -0.93097       -0.12720
O          0.08683       -2.08834       -0.31584
C          1.81365       -0.48574       -0.04102
C          2.09926        0.82668       -0.03259
C          1.05397        1.87898       -0.02191
O          1.38113        3.05712       -0.02680
C          2.95324       -1.44966        0.04375
O          2.87693       -2.62758        0.27493
H         -2.39327        2.17226        0.09266
H         -1.26137        3.23976       -0.77362
H         -1.21738        3.17720        0.97362
H          3.12426        1.18760       -0.01120
H          3.93901       -0.95492       -0.09820
C         -2.01543       -0.34268        0.01084
C         -3.13275       -0.79978        0.03890
C         -4.47103       -1.36546        0.06866
H         -4.94157       -1.20140        1.04281
H         -5.10852       -0.90602       -0.69237
H         -4.43917       -2.44256       -0.11575
