22
57194585_b3lyp_prop_1.log	Energy: -407718.8587433
C         -0.98888        1.72121       -0.16767
C         -1.19701        0.39744        0.02300
C         -0.02746       -0.50291        0.33490
O         -0.17817       -1.69821        0.50418
C          1.33512        0.10977        0.43047
C          1.49270        1.42910        0.22785
C          0.35301        2.32279       -0.07962
O          0.52353        3.52151       -0.25187
C          2.47880       -0.81691        0.74671
C          2.87430       -1.68901       -0.44284
O          3.99846       -1.75070       -0.86837
H          2.46401        1.90920        0.28685
H          3.35819       -0.25788        1.06734
H          2.17303       -1.50243        1.54599
H          2.05473       -2.28238       -0.89132
H         -1.80389        2.39765       -0.39587
C         -2.47501       -0.20677       -0.06013
C         -3.55572       -0.74004       -0.12919
C         -4.85439       -1.38660       -0.21286
H         -5.55304       -0.95184        0.50804
H         -5.28559       -1.26488       -1.21095
H         -4.77076       -2.45661       -0.00534
