22
57194585_b3lyp_prop_0.log	Energy: -407719.2651900
C         -1.38001        0.17249       -0.06750
C         -0.59230        1.27337       -0.10399
C          0.86341        1.19926       -0.29013
O          1.55199        2.21121       -0.30921
C          1.49457       -0.14953       -0.45549
C          0.71953       -1.24699       -0.41437
C         -0.74627       -1.19133       -0.22595
O         -1.41306       -2.20774       -0.20284
C          2.98502       -0.19817       -0.64917
C          3.75120        0.08694        0.64166
O          4.57614       -0.66264        1.09554
H         -1.00337        2.26967        0.00716
H          1.12855       -2.24572       -0.52700
H          3.30145       -1.17064       -1.02703
H          3.27612        0.58347       -1.36098
H          3.50744        1.04637        1.13611
C         -2.78164        0.22570        0.11345
C         -3.97908        0.24283        0.26696
C         -5.42005        0.25409        0.45138
H         -5.91004        0.81851       -0.34755
H         -5.82036       -0.76309        0.44697
H         -5.68661        0.72293        1.40324
