22
57194585_b3lyp_prop_2.log	Energy: -407718.8562979
C          2.03485       -1.98517       -0.28863
C          2.74843       -0.87391       -0.08179
C          2.09071        0.41510        0.23696
O          2.75906        1.42691        0.40119
C          0.60802        0.45325        0.34569
C         -0.12738       -0.67203        0.11278
C          0.55472       -1.97978       -0.20862
O         -0.08093       -2.99864       -0.39741
C         -0.01168        1.77995        0.68586
C         -0.18970        2.67274       -0.53942
O         -1.20917        3.25996       -0.79290
H         -0.98239        1.65729        1.16502
H          0.66547        2.32077        1.35715
H          0.70194        2.76588       -1.19110
H          2.48766       -2.94155       -0.52517
H          3.83105       -0.84967       -0.13844
C         -1.54120       -0.69405        0.16611
C         -2.74832       -0.72096        0.19003
C         -4.20029       -0.75514        0.21164
H         -4.56662       -0.96328        1.22163
H         -4.61880        0.20292       -0.10892
H         -4.57894       -1.53830       -0.45085
