22
5766_b3lyp_prop_3.log	Energy: -418419.7997450
C          3.04520        1.36337        0.00001
C          3.48585        0.09668        0.00003
C          2.56591       -1.07065        0.00005
O          3.00773       -2.20805        0.00008
C          1.11092       -0.77497        0.00002
C          0.64094        0.54704       -0.00000
C          1.60186        1.69787        0.00001
O          1.22195        2.85480       -0.00000
C         -0.72826        0.77268       -0.00003
C         -1.59756       -0.33143       -0.00010
N         -1.14847       -1.60617       -0.00008
C          0.16452       -1.80714       -0.00001
H          0.50400       -2.83787        0.00003
H          3.72189        2.21109       -0.00001
H          4.54332       -0.14528        0.00004
H         -1.11209        1.78446        0.00001
C         -3.00981       -0.13121       -0.00022
C         -4.20182        0.05509       -0.00033
C         -5.64061        0.26427        0.00001
H         -5.96341        0.74369        0.92894
H         -5.94141        0.90919       -0.83076
H         -6.17326       -0.68566       -0.09500
