25
59350876_b3lyp_prop_3.log	Energy: -409097.8470627
C          4.56544       -1.24679        0.00019
C          3.16111       -0.73787        0.00007
C          2.01584       -1.46163       -0.00001
C          0.88102       -0.54930       -0.00003
C          1.32049        0.73778        0.00004
C          2.81847        0.73607        0.00007
C          0.40526        1.87694       -0.00003
O          0.78392        3.04383       -0.00014
C         -1.04194        1.54654        0.00003
C         -1.51892        0.27799       -0.00004
C         -0.55712       -0.89542       -0.00015
O         -0.94903       -2.04589       -0.00036
H          5.11491       -0.89170       -0.87868
H          4.59257       -2.33787        0.00014
H          5.11470       -0.89178        0.87922
H          3.22800        1.25741       -0.87426
H          1.93050       -2.53957       -0.00003
H          3.22804        1.25747        0.87435
H         -1.71476        2.39632        0.00009
C         -2.90428       -0.02143       -0.00006
C         -4.07908       -0.29879       -0.00003
C         -5.49242       -0.63883        0.00015
H         -5.98257       -0.26940        0.90597
H         -6.00174       -0.19375       -0.85982
H         -5.63202       -1.72229       -0.04425
