25
59350876_b3lyp_prop_1.log	Energy: -409090.1917817
C         -1.84595        2.83800       -0.54746
C         -0.76836        1.82156       -0.38301
C          0.49101        2.00032        0.07299
C          1.18596        0.72140        0.07572
C          0.36742       -0.26264       -0.37935
C         -0.97443        0.34453       -0.73548
C          0.81221       -1.64682       -0.53612
O          0.12632       -2.53365       -1.02476
C          2.20883       -1.92896       -0.07725
C          3.02216       -0.97097        0.38899
C          2.58209        0.44668        0.49449
O          3.32680        1.32127        0.90465
H         -2.15900        2.91626       -1.59467
H         -1.51362        3.82280       -0.21512
H         -2.73389        2.55458        0.02688
H         -1.11119        0.26222       -1.82589
H          2.52473       -2.96299       -0.16526
H          4.03860       -1.17453        0.70786
H          0.93611        2.93339        0.39024
C         -2.12480       -0.26275       -0.06828
C         -3.07638       -0.74690        0.48685
C         -4.21837       -1.36323        1.15018
H         -4.38189       -0.93041        2.14121
H         -5.13359       -1.22537        0.56742
H         -4.05947       -2.43817        1.27458
