25
59350876_b3lyp_prop_2.log	Energy: -409098.1283495
C         -4.63243       -1.05878        0.00021
C         -3.21970       -0.57377        0.00005
C         -2.78258        0.70922       -0.00002
C         -1.32857        0.71197       -0.00001
C         -0.86084       -0.56567        0.00001
C         -2.02835       -1.50608        0.00007
C          0.55899       -0.89703       -0.00016
O          0.97903       -2.04257       -0.00044
C          1.51294        0.29224       -0.00002
C          1.03273        1.56037        0.00002
C         -0.41086        1.87464       -0.00004
O         -0.81698        3.02798       -0.00010
H         -4.83717       -1.68071       -0.87829
H         -5.33848       -0.22656       -0.00045
H         -4.83736       -1.67943        0.87958
H         -2.02171       -2.16875       -0.87436
H          1.70113        2.41344        0.00007
H         -3.39285        1.60187       -0.00007
H         -2.02169       -2.16871        0.87455
C          2.89911        0.00285       -0.00001
C          4.07586       -0.26729       -0.00004
C          5.49044       -0.60089        0.00011
H          5.97707       -0.23475        0.90920
H          5.63529       -1.68333       -0.05124
H          5.99901       -0.14705       -0.85575
