25
59350869_b3lyp_prop_0.log	Energy: -409100.5765400
C         -1.09350        2.34341       -0.00130
C         -0.60728        0.93016       -0.00127
C         -1.37828       -0.20436       -0.00178
C         -0.49789       -1.43524       -0.00148
C          0.87797       -0.85537       -0.00066
C          0.79033        0.50651       -0.00053
C          2.01018        1.35282        0.00048
O          1.97403        2.57277        0.00087
C          3.30917        0.62396        0.00164
C          3.37471       -0.71453        0.00139
C          2.15118       -1.57113       -0.00001
O          2.23980       -2.79315       -0.00006
H         -0.72480        2.88553       -0.87626
H         -0.72299        2.88623        0.87242
H         -2.18399        2.37084       -0.00027
H         -0.67912       -2.07020        0.87356
H         -0.67813       -2.07005       -0.87684
H          4.19482        1.25004        0.00266
H          4.31935       -1.24782        0.00218
C         -2.78678       -0.27316       -0.00179
C         -3.99308       -0.36337       -0.00089
C         -5.44450       -0.46621        0.00291
H         -5.83402       -0.48375        1.02572
H         -5.90053        0.38327       -0.51378
H         -5.77463       -1.38196       -0.49600
