28
599944_b3lyp_prop_1.log	Energy: -433772.2330340
C         -0.98129        1.31899        1.62128
C         -0.72926        0.70585        0.22077
C         -1.57088       -0.54878        0.02389
C         -1.03242       -1.77734        0.07338
C          0.43152       -2.03354        0.26556
C          1.27361       -0.80614        0.06145
C          0.74081        0.43332        0.00959
C          1.61360        1.61449       -0.26904
O          1.14904        2.73755       -0.38999
C          3.07462        1.39369       -0.41189
C          3.60136        0.16788       -0.33187
C          2.74128       -1.01824       -0.10093
O          3.23016       -2.13623       -0.04326
H         -0.66463        0.62772        2.40678
H         -2.04673        1.52029        1.75131
H         -0.43775        2.25835        1.73298
H         -1.67420       -2.64456       -0.04000
H          0.62422       -2.44680        1.26711
H          0.77857       -2.81876       -0.41490
H          3.66987        2.28228       -0.59103
H          4.66272       -0.02820       -0.43657
H         -1.03822        1.45519       -0.51432
C         -2.96811       -0.34754       -0.18273
C         -4.14317       -0.13235       -0.36119
C         -5.56289        0.10770       -0.58068
H         -6.16361       -0.30631        0.23495
H         -5.77573        1.17867       -0.64361
H         -5.90083       -0.35637       -1.51223
