31
616789_b3lyp_1.log	Energy: -539567.6224617
C         -2.66213       -3.25588        0.89115
C         -2.42050       -2.55534       -0.45902
C         -2.08852       -1.08438       -0.31170
C         -0.79299       -0.54373       -0.11483
C         -0.61275        0.85708       -0.00207
C         -1.72564        1.71827       -0.05042
C         -3.00256        1.17502       -0.23625
C         -3.16529       -0.19127       -0.37251
C          0.75176        1.46139        0.15272
O          0.88579        2.65559        0.34685
C          1.93002        0.56659        0.03953
C          3.21462        1.12048        0.04293
C          4.32522        0.29260       -0.05829
C          4.16104       -1.09335       -0.15055
C          2.88780       -1.64909       -0.13959
C          1.76373       -0.82059       -0.05223
C          0.40820       -1.44013       -0.02244
O          0.30202       -2.65186        0.07930
H         -1.76113       -3.24047        1.50506
H         -2.93979       -4.29992        0.72514
H         -3.47231       -2.77506        1.44658
H         -3.33259       -2.62427       -1.06008
H         -3.85691        1.83905       -0.28233
H         -4.16145       -0.58841       -0.53407
H          3.31618        2.19544        0.12463
H          5.32063        0.72162       -0.06318
H          5.02985       -1.73711       -0.22711
H          2.74041       -2.72009       -0.19669
H         -1.63142       -3.07839       -0.99506
C         -1.66121        3.14726        0.05947
N         -1.80269        4.29262        0.12179
