31
616789_b3lyp_5.log	Energy: -539571.9724069
C         -3.92252       -2.20675        0.90105
C         -3.60777       -1.52131       -0.44123
C         -2.93392       -0.17321       -0.27924
C         -1.53962        0.03218       -0.12130
C         -1.04208        1.35316        0.01406
C         -1.90776        2.44604        0.02379
C         -3.27305        2.24483       -0.12075
C         -3.76551        0.95448       -0.27889
C          0.41683        1.65269        0.13414
O          0.82334        2.79203        0.28638
C          1.36766        0.51020        0.04252
C          2.73992        0.76096        0.07825
C          3.64036       -0.30229       -0.00993
C          3.16385       -1.62087       -0.12739
C          1.80012       -1.86279       -0.15422
C          0.89149       -0.80126       -0.07460
C         -0.57739       -1.10848       -0.09562
O         -0.93286       -2.27635       -0.08496
H         -3.00785       -2.42358        1.45405
H         -4.44183       -3.15273        0.72651
H         -4.56521       -1.57804        1.52385
H         -4.54516       -1.35601       -0.98130
H          3.86951       -2.43971       -0.19408
H          1.41428       -2.87078       -0.23647
H         -2.99444       -2.18763       -1.04520
H         -1.48761        3.43714        0.13654
H         -3.95293        3.08925       -0.12072
H         -4.83238        0.80629       -0.40950
H          3.08583        1.78221        0.17358
C          5.05053       -0.05488        0.01979
N          6.18956        0.13598        0.04268
