31
616789_b3lyp_2.log	Energy: -539572.0605657
C          1.94356        3.42731        0.90087
C          1.90306        2.66783       -0.43769
C          1.72635        1.17145       -0.26771
C          0.48512        0.50105       -0.11438
C          0.46707       -0.90607        0.03168
C          1.64731       -1.64254        0.05553
C          2.86869       -0.98573       -0.08458
C          2.89286        0.40268       -0.25256
C         -0.80830       -1.68836        0.15112
O         -0.78461       -2.89704        0.30896
C         -2.08649       -0.94288        0.05346
C         -3.29671       -1.64304        0.09727
C         -4.49999       -0.95551        0.00563
C         -4.50255        0.43677       -0.12465
C         -3.30380        1.13834       -0.16129
C         -2.08632        0.45397       -0.07692
C         -0.81766        1.24398       -0.10629
O         -0.86808        2.46336       -0.11605
H          1.00163        3.32084        1.43994
H          2.10950        4.49254        0.72103
H          2.75393        3.06195        1.53798
H          2.84845        2.82880       -0.96465
H          3.84899        0.89771       -0.37669
H         -3.26802       -2.72040        0.20255
H         -5.43745       -1.49882        0.03637
H         -5.44264        0.97190       -0.19531
H         -3.28638        2.21680       -0.25413
H          1.10761        3.07772       -1.05690
H          1.59357       -2.71647        0.17523
C          4.09556       -1.72454       -0.06974
N          5.08941       -2.31304       -0.05815
