35
616789_b3lyp_prop_4.log	Energy: -554154.2655943
C         -4.41096       -2.13792        0.91547
C         -4.09434       -1.45780       -0.42880
C         -3.38763       -0.12541       -0.27211
C         -1.98824        0.04742       -0.12123
C         -1.46079        1.35586        0.01141
C         -2.30135        2.46849        0.02425
C         -3.67141        2.29954       -0.11408
C         -4.19380        1.02047       -0.26856
C          0.00754        1.62183        0.12666
O          0.43288        2.75581        0.27726
C          0.93034        0.45974        0.03316
C          2.30737        0.67747        0.06554
C          3.20112       -0.39792       -0.02241
C          2.67849       -1.70333       -0.13680
C          1.31060       -1.91821       -0.16124
C          0.41970       -0.84113       -0.08200
C         -1.04815       -1.11628       -0.10147
O         -1.43885       -2.27483       -0.09573
H         -3.49485       -2.37795        1.45627
H         -4.95573       -3.07068        0.74610
H         -5.03034       -1.49435        1.54695
H         -3.50204       -2.13715       -1.03901
H         -5.03345       -1.27020       -0.95900
H          3.36324       -2.54011       -0.20392
H          0.90582       -2.91913       -0.24222
H         -1.85687        3.44921        0.13477
H         -4.33184        3.15943       -0.11179
H         -5.26453        0.89618       -0.39368
H          2.67318        1.69173        0.15909
C          4.60945       -0.17924        0.00337
C          5.80236        0.00414        0.02448
C          7.23930        0.23409        0.05096
H          7.54824        0.87252       -0.78210
H          7.53874        0.72915        0.97953
H          7.79048       -0.70740       -0.02272
