51
6699_b3lyp_prop_4.log	Energy: -889255.9530720
O         -3.27864       -1.30657       -0.49369
O          3.95641        0.41581       -0.34260
O         -1.10701       -2.72418        0.20449
O          1.78222        1.72508        0.50006
C         -1.12827       -0.36057       -0.09400
C          1.80737       -0.58178       -0.09913
C         -0.33640        0.80023        0.02871
C          1.01280       -1.74655       -0.13163
C         -0.48397       -1.69511        0.01027
C          1.16079        0.73064        0.17212
C         -2.52250       -0.19724       -0.25686
C          3.20392       -0.71753       -0.27231
C         -0.90873        2.06671        0.03157
C          1.59061       -3.00481       -0.29279
C         -3.09064        1.07481       -0.27398
C          3.77093       -1.98209       -0.45369
C         -2.29420        2.21797       -0.12073
C          2.96635       -3.11544       -0.45518
C         -4.61074       -1.36120       -0.11984
C          5.31366        0.39136       -0.06416
C         -5.01030       -1.09356        1.18876
C          5.78336       -0.00733        1.18627
C         -5.52690       -1.79128       -1.07514
C          6.18357        0.87293       -1.03733
C         -6.35145       -1.24507        1.53239
C          7.14860        0.06370        1.45194
C         -6.86477       -1.94601       -0.71652
C          7.54723        0.94572       -0.75696
C         -7.28240       -1.66977        0.58434
C          8.03415        0.53811        0.48378
H          3.42033       -4.08962       -0.59811
H         -4.27939       -0.78245        1.92523
H          5.08593       -0.35634        1.93824
H         -5.18065       -2.00602       -2.07872
H          5.78379        1.19097       -1.99247
H         -6.66620       -1.04146        2.54969
H          7.51886       -0.24174        2.42405
H         -7.58037       -2.28276       -1.45800
H          8.22809        1.32241       -1.51179
H         -8.32347       -1.79013        0.86001
H          9.09478        0.59561        0.69848
H         -0.26783        2.92983        0.14752
H          0.94676       -3.87421       -0.29446
H         -4.15751        1.18070       -0.41784
H          4.83957       -2.06764       -0.60169
C         -2.88717        3.51456       -0.13811
C         -3.38641        4.61331       -0.15093
C         -3.98245        5.94097       -0.16564
H         -3.79755        6.46258        0.77818
H         -3.56086        6.54962       -0.97109
H         -5.06431        5.88552       -0.31456
