51
6699_b3lyp_prop_10.log	Energy: -889255.7853763
O          2.85132        1.06611       -0.55476
O         -4.46977       -0.30747       -0.50160
O          0.86418        1.98165        0.95859
O         -2.33671       -1.90288       -0.76862
C          0.67028        0.11322       -0.50810
C         -2.22972        0.36245       -0.03677
C         -0.20197       -0.91444       -0.92268
C         -1.34926        1.35000        0.45144
C          0.14555        1.20912        0.34968
C         -1.66847       -0.90074       -0.58749
C          2.03071        0.03201       -0.88876
C         -3.62001        0.59248        0.06908
C          0.26592       -1.99939       -1.66256
C         -1.83560        2.50734        1.05739
C          2.48518       -1.05072       -1.64694
C         -4.09712        1.76498        0.66106
C          1.60626       -2.05988       -2.02262
C         -3.20696        2.70941        1.15815
C          4.23036        0.92522       -0.60083
C         -5.76141       -0.47204       -0.03046
C          4.87993        0.08535        0.29626
C         -6.01264       -0.77285        1.30747
C          4.94107        1.71680       -1.49720
C         -6.79541       -0.42526       -0.96078
C          6.28228        0.01384        0.29239
C         -7.32312       -1.01084        1.71460
C          6.33401        1.65079       -1.49661
C         -8.10161       -0.67278       -0.54212
C          7.00391        0.80722       -0.61816
C         -8.37076       -0.96118        0.79478
H         -7.52291       -1.24867        2.75333
H          6.89879        2.26443       -2.18904
H         -8.90898       -0.63912       -1.26480
H          8.08557        0.75768       -0.62093
H         -9.38743       -1.15274        1.11724
H         -0.43431       -2.77368       -1.94603
H         -1.12567        3.23207        1.43309
H          3.52487       -1.09288       -1.94328
H         -5.16501        1.93216        0.71800
H          1.97454       -2.89324       -2.61030
H         -3.59107        3.61531        1.61347
H          4.30584       -0.50265        1.00106
H         -5.19193       -0.82878        2.01235
H          4.40303        2.37335       -2.16964
H         -6.56407       -0.20570       -1.99593
C          6.96156       -0.84377        1.20991
C          7.53657       -1.56835        1.98517
C          8.22969       -2.43997        2.92352
H          8.98323       -1.88582        3.49112
H          7.52989       -2.88311        3.63769
H          8.73819       -3.25585        2.40096
