24
67210468_b3lyp_prop_2.log	Energy: -455543.7175317
C          2.72411       -1.74702       -0.24816
C          1.88729       -2.80074       -0.42945
O          0.59505       -2.40091       -0.38808
C          0.58099       -1.05153       -0.18056
C          1.88769       -0.59104       -0.08851
C         -0.69711       -0.37384       -0.11137
C         -0.82955        0.93076       -0.46024
C         -2.10683        1.65463       -0.38469
O         -2.19173        2.83590       -0.69548
C         -3.30232        0.89263        0.05198
C         -3.20321       -0.39349        0.40590
C         -1.90143       -1.10846        0.42947
O         -1.82689       -2.22138        0.91369
H          0.00919        1.50321       -0.83560
H         -4.24069        1.43609        0.06700
H         -4.05331       -0.97857        0.73911
H          3.80128       -1.76549       -0.22300
H          2.04839       -3.85284       -0.59420
C          2.33046        0.73071        0.14517
C          2.73360        1.85215        0.34099
C          3.20251        3.20941        0.57689
H          3.53791        3.33524        1.61072
H          4.04249        3.45294       -0.08018
H          2.40619        3.93562        0.39043
