24
67210468_b3lyp_prop_1.log	Energy: -455544.4734967
C         -1.92834        1.95060       -0.51399
C         -2.29207        0.68587       -0.11056
O         -1.17254       -0.07603        0.07143
C         -0.09025        0.70617       -0.20862
C         -0.51508        1.96353       -0.57378
C          1.24024        0.15021       -0.06206
C          2.29802        0.93726        0.25727
C          3.67056        0.42626        0.37832
O          4.60865        1.16578        0.64651
C          3.87451       -1.03222        0.19641
C          2.85085       -1.83612       -0.11281
C          1.47806       -1.31569       -0.33686
O          0.60839       -2.04769       -0.76770
H          0.11687        2.78335       -0.87652
H          2.17529        1.99361        0.46822
H          4.88827       -1.39498        0.32600
H          2.96655       -2.90420       -0.26041
H         -2.60718        2.75502       -0.74585
C         -3.54366        0.09326        0.12613
C         -4.62698       -0.40072        0.32726
C         -5.92728       -1.00512        0.56617
H         -6.40691       -0.57487        1.45054
H         -6.59371       -0.85213       -0.28785
H         -5.82662       -2.08213        0.72662
