32
6773_b3lyp_prop_4.log	Energy: -529482.4691927
C          5.89195        0.25543       -0.00081
C          4.43839       -0.14556        0.00028
C          3.42410        0.81036        0.00012
C          2.07648        0.43873       -0.00005
C          1.72671       -0.92179        0.00003
C          2.74063       -1.88628        0.00036
C          4.07303       -1.50232        0.00054
C          0.30392       -1.35939       -0.00017
O          0.00041       -2.54165        0.00019
C         -0.74180       -0.29089       -0.00011
C         -2.08416       -0.66563       -0.00018
C         -3.09884        0.30204       -0.00009
C         -2.73564        1.66468        0.00025
C         -1.40199        2.03898        0.00022
C         -0.39117        1.07140       -0.00001
C          1.03297        1.50652       -0.00018
O          1.33554        2.68980        0.00054
H          6.41123       -0.14949        0.87313
H          6.00602        1.34034        0.01066
H          6.40392       -0.12960       -0.88808
H         -3.51443        2.41761        0.00048
H         -1.11636        3.08367        0.00037
H          3.65961        1.86818        0.00017
H          2.45871       -2.93205        0.00059
H          4.84798       -2.26242        0.00097
H         -2.33032       -1.71959       -0.00026
C         -4.47096       -0.08394       -0.00064
C         -5.63303       -0.41059       -0.00095
C         -7.03203       -0.81177       -0.00012
H         -7.66420       -0.03577       -0.44088
H         -7.17565       -1.73225       -0.57311
H         -7.38546       -0.99378        1.01936
