35
73698_b3lyp_prop_3.log	Energy: -554154.0407426
C         -3.90506       -2.38584       -0.00189
C         -3.42630       -0.95401       -0.00115
C         -2.07155       -0.54625        0.00016
C         -1.73103        0.83944        0.00053
C         -2.74209        1.82937        0.00002
C         -4.06959        1.39263       -0.00129
C         -4.39982        0.04876       -0.00197
C         -2.50256        3.32002        0.00077
C         -0.29532        1.26190        0.00123
O          0.03320        2.43930        0.00153
C          0.76214        0.21028        0.00050
C          2.10166        0.60072       -0.00009
C          3.12340       -0.35736       -0.00064
C          2.77155       -1.72413       -0.00032
C          1.44221       -2.10945        0.00028
C          0.42517       -1.14668        0.00061
C         -0.99457       -1.58656        0.00137
O         -1.25054       -2.78300        0.00357
H         -3.54081       -2.93578       -0.87120
H         -4.99724       -2.40329       -0.00422
H         -3.54456       -2.93531        0.86929
H         -1.92754        3.63931        0.87159
H         -1.92672        3.64001       -0.86927
H         -3.46240        3.84144        0.00050
H          3.55700       -2.47018       -0.00056
H          1.16383       -3.15572        0.00060
H         -4.86242        2.13296       -0.00178
H         -5.44558       -0.23980       -0.00313
H          2.33727        1.65670        0.00002
C          4.49301        0.03886       -0.00141
C          5.65321        0.37209       -0.00174
C          7.05037        0.78046       -0.00086
H          7.19499        1.68282       -0.60187
H          7.39379        0.99691        1.01542
H          7.69032       -0.00588       -0.41090
