35
73698_b3lyp_prop_2.log	Energy: -554149.2352688
C         -4.31426        1.17015        0.15261
C         -3.31242        0.04211        0.11850
C         -1.92003        0.20465       -0.06493
C         -1.05322       -0.91941       -0.09822
C         -1.56040       -2.22708        0.06778
C         -2.93600       -2.35675        0.27699
C         -3.78427       -1.26067        0.29536
C         -0.72553       -3.48523        0.05622
C          0.41349       -0.72258       -0.34148
O          1.11511       -1.63835       -0.73720
C          0.99392        0.62737       -0.09164
C          2.39022        0.81950        0.06676
C          2.86512        2.13092        0.25300
C          2.00332        3.22098        0.25633
C          0.63737        3.02947        0.08957
C          0.13534        1.73639       -0.06671
C         -1.34273        1.57084       -0.21947
O         -2.03932        2.55296       -0.42886
H         -4.03948        1.94022        0.87565
H         -5.29923        0.77666        0.41331
H         -4.38119        1.67650       -0.81202
H         -0.35342       -3.70724       -0.94570
H          0.15612       -3.40056        0.69325
H         -1.32981       -4.32747        0.40079
H          3.92965        2.27646        0.39010
H          2.40127        4.22029        0.39156
H         -0.05651        3.86008        0.08059
H         -3.34986       -3.34836        0.42771
H         -4.84606       -1.41535        0.45527
C          3.34666       -0.23633        0.07970
C          4.23538       -1.05166        0.11961
C          5.25606       -2.08747        0.13801
H          5.62783       -2.25654        1.15341
H          4.85540       -3.03353       -0.23767
H          6.11088       -1.80903       -0.48563
