22
101355_b3lyp_0_Li.log	Energy: -403452.3708797
O          2.74456       -0.39234       -0.00000
O          1.78102        2.05913        0.00004
O         -1.73759       -2.20743        0.00004
C         -0.48545        1.28002       -0.00001
C          0.89853        1.07422        0.00000
C          1.33695       -0.28494       -0.00001
C         -1.35084        0.15664       -0.00001
C          0.50558       -1.38875        0.00001
C         -0.89804       -1.20807        0.00001
C         -1.00292        2.69145       -0.00004
C          3.32177       -1.69935       -0.00005
H          0.87544       -2.40505        0.00001
H         -0.63504        3.23667       -0.87476
H         -0.63535        3.23661        0.87486
H         -2.09463        2.72826       -0.00022
H          4.40330       -1.56205       -0.00012
H          3.02400       -2.25385       -0.89338
H          3.02413       -2.25386        0.89332
C         -2.75671        0.22833       -0.00003
N         -3.90746        0.02674       -0.00000
Li         3.37323        1.40666        0.00011
Li        -3.48219       -1.96870        0.00003
