22
101355_b3lyp_1_Li.log	Energy: -403447.3665940
O         -0.08240        2.16781       -0.28539
O         -2.55504        1.07902       -0.20079
O          1.81762       -2.29142        0.10160
C         -1.65714       -1.14626        0.06115
C         -1.51114        0.27660       -0.08611
C         -0.20527        0.76419       -0.11879
C         -0.55751       -1.98194        0.13886
C          0.92941       -0.08381       -0.07580
C          0.77760       -1.50966        0.06377
C         -3.05809       -1.68678        0.12420
C          0.69768        2.85594        0.71281
H         -3.60701       -1.44067       -0.79004
H         -3.61475       -1.22108        0.94298
H         -3.05985       -2.76986        0.26027
H          0.58438        3.92414        0.51997
H          1.75415        2.59673        0.63301
H          0.33135        2.61075        1.71353
H         -0.69331       -3.05273        0.24901
C          2.27279        0.28509       -0.20452
N          3.43895        0.33155       -0.28646
Li        -1.91603        2.62970       -0.64697
Li         3.46966       -1.71359       -0.06650
