24
102182508_b3lyp_3_Li.log	Energy: -427944.2520039
C         -2.69626       -0.27890        1.34520
C         -1.38682       -0.43584        1.64582
C         -0.60316       -0.82445        0.41392
C         -1.64677       -0.74114       -0.66618
C         -2.86185       -0.46510       -0.11519
C          0.74422       -0.16912        0.15576
C          1.90457       -0.94891        0.06457
C          3.16374       -0.37804       -0.17675
O          4.26491       -1.12132       -0.26298
C          3.20344        1.02397       -0.32200
C          2.05707        1.80344       -0.23266
C          0.78564        1.23912        0.00518
O         -0.30877        1.97283        0.08689
H         -3.51225       -0.09190        2.03181
H          1.84706       -2.02811        0.18241
H          4.16495        1.49327       -0.50918
H          2.11483        2.88060       -0.35060
H         -0.94007       -0.36802        2.62826
H         -0.40612       -1.90633        0.53264
H         -1.44285       -0.91853       -1.71261
C         -4.10647       -0.37504       -0.79971
N         -5.13017       -0.28579       -1.33066
Li         5.63673       -1.94709       -0.39809
Li        -1.93926        1.75625        0.40234
