24
102182508_b3lyp_5_Li.log	Energy: -427965.3801768
C         -3.98458       -0.19028        0.73644
C         -2.74467       -0.51667        1.17580
C         -1.85510       -0.85346        0.00023
C         -2.74429       -0.51745       -1.17583
C         -3.98441       -0.19099       -0.73714
C         -0.41562       -0.36419        0.00019
C          0.62202       -1.28828        0.00029
C          1.98162       -0.89809        0.00009
O          2.97638       -1.74483        0.00032
C          2.19955        0.52139       -0.00014
C          1.15251        1.46412       -0.00009
C         -0.18240        1.05207        0.00019
O         -1.18527        1.90232       -0.00010
H         -4.85134        0.00884        1.35501
H          1.36866        2.52576       -0.00020
H         -2.42313       -0.60784        2.20413
H         -1.81089       -1.95761        0.00061
H         -2.42231       -0.60919       -2.20398
H         -4.85098        0.00766       -1.35611
H          0.41469       -2.35397        0.00039
C          3.57271        0.83763       -0.00036
N          4.73993        0.83499       -0.00031
Li         4.65440       -1.21680        0.00024
Li        -2.86679        1.73238        0.00064
