27
10281_b3lyp_0_Li.log	Energy: -405586.1343705
C         -3.22049       -0.71865        0.11299
C         -1.73100       -0.52698        0.03276
C         -1.14372        0.76131       -0.04151
C          0.26960        1.00495       -0.11755
O          0.73787        2.22536       -0.17825
C          1.10916       -0.14731       -0.12623
C          0.52131       -1.40042       -0.05458
C         -0.87613       -1.63156        0.02761
O         -1.34903       -2.87279        0.09329
C          2.61309        0.06958       -0.18915
C          3.17201        0.42444        1.20370
C          3.39165       -1.10043       -0.80488
H         -3.75724        0.23283        0.10266
H         -3.49928       -1.25352        1.02795
H         -3.58485       -1.32109       -0.72679
H          1.14739       -2.28704       -0.06402
H          2.76428        0.94917       -0.82378
H          3.04373       -0.41347        1.89724
H          4.24104        0.65736        1.14740
H          2.65486        1.29325        1.61530
H          3.00116       -1.36827       -1.79075
H          4.44600       -0.83107       -0.92043
H          3.35457       -1.99435       -0.17369
C         -1.87178        1.96691       -0.05095
N         -2.24754        3.07303       -0.07417
Li        -0.29327        3.64746       -0.18584
Li        -1.90397       -4.38300        0.17067
