21
10419488_b3lyp_1_Li.log	Energy: -426595.8901307
C         -0.78219        3.34666       -0.00023
C         -0.76281        1.83891       -0.00004
C         -1.96449        1.10377       -0.00006
C         -2.05849       -0.30156        0.00003
O         -3.20078       -0.97065        0.00010
C         -0.80442       -0.92238        0.00009
C          0.40829       -0.22699        0.00014
C          0.49019        1.18383        0.00015
O          1.65199        1.80938        0.00034
C          1.42836       -1.25863       -0.00004
C          0.78002       -2.46438       -0.00018
O         -0.55675       -2.29632       -0.00002
H         -0.26159        3.74866       -0.87588
H         -0.26300        3.74900        0.87609
H         -1.80572        3.72908       -0.00110
H          1.14295       -3.47912       -0.00049
H         -2.90424        1.64935       -0.00015
C          2.80516       -0.97567       -0.00003
N          3.90450       -0.59657       -0.00002
Li        -4.51899       -1.89587        0.00001
Li         3.30788        1.39535       -0.00023
