21
10419488_b3lyp_0_Li.log	Energy: -426600.0046099
C          1.00545        2.79706        0.00002
C          0.42207        1.40838        0.00003
C          1.26947        0.25382        0.00008
C          0.81882       -1.11386        0.00005
O          1.63221       -2.12488        0.00055
C         -0.58890       -1.19839        0.00002
C         -1.44833       -0.09837       -0.00003
C         -0.96133        1.24339        0.00002
O         -1.80071        2.26966       -0.00051
C         -2.77599       -0.65363       -0.00015
C         -2.62217       -2.00232       -0.00005
O         -1.30896       -2.36742        0.00006
H          0.67878        3.36312        0.87995
H          0.67888        3.36308       -0.87997
H          2.09761        2.78225        0.00008
H         -3.71066       -0.11653       -0.00025
H         -3.32814       -2.81700       -0.00006
C          2.67434        0.30302        0.00006
N          3.82308        0.08456        0.00003
Li         3.38214       -1.91032        0.00075
Li        -2.75513        3.57023       -0.00110
