21
10419488_b3lyp_2_Li.log	Energy: -426587.6430517
C         -3.80836       -0.00046        0.00011
C         -2.31383        0.20809        0.00008
C         -1.78974        1.51969        0.00007
C         -0.41127        1.81989        0.00008
O          0.16246        3.00931       -0.00005
C          0.35790        0.65551        0.00002
C         -0.08396       -0.66917        0.00004
C         -1.47924       -0.93262        0.00010
O         -1.95585       -2.16594       -0.00012
C          1.10163       -1.46913       -0.00003
C          2.17610       -0.62566       -0.00006
O          1.75897        0.70897       -0.00005
H         -4.13446       -0.56657        0.88093
H         -4.13449       -0.56661       -0.88068
H         -4.33868        0.95385        0.00009
H         -2.47871        2.35899        0.00010
H          1.16848       -2.54590       -0.00005
C          3.56205       -0.86081        0.00006
N          4.70650       -1.04520        0.00018
Li         1.88852        2.70035       -0.00056
Li        -2.76186       -3.56967       -0.00034
