18
10986586_b3lyp_1_Li.log	Energy: -604597.4427945
C         -0.36070        2.41179        0.00000
C         -1.68574        1.95764       -0.00001
C         -2.03115        0.59658        0.00002
O         -3.27972        0.14820       -0.00006
C         -0.93367       -0.27874        0.00001
C          0.40962        0.15460        0.00002
C          0.74388        1.54122        0.00004
O          1.99358        1.94743        0.00008
C          1.31059       -0.97866        0.00001
C          0.67904       -2.19775       -0.00001
S         -1.04445       -2.04026       -0.00002
H         -0.15846        3.47755       -0.00002
H          1.14231       -3.17260       -0.00003
H         -2.49655        2.68013       -0.00004
C          2.71672       -0.82421        0.00001
N          3.86435       -0.63639       -0.00003
Li        -4.80669       -0.37225       -0.00016
Li         3.59707        1.39024        0.00013
