18
10986586_b3lyp_2_Li.log	Energy: -604583.5008682
C          2.64297        0.86321        0.00006
C          2.70075       -0.53865        0.00003
C          1.55414       -1.34691        0.00001
O          1.58179       -2.67069       -0.00001
C          0.33953       -0.64033        0.00000
C          0.24901        0.77275        0.00003
C          1.43272        1.56769        0.00007
O          1.36988        2.88821        0.00006
C         -1.10423        1.21573        0.00001
C         -2.01805        0.19428       -0.00003
S         -1.24457       -1.39830       -0.00005
H          3.56537        1.43529        0.00007
H          3.66666       -1.03442        0.00002
H         -1.39482        2.25732        0.00003
C         -3.42283        0.31590       -0.00005
N         -4.57839        0.41011       -0.00007
Li         1.39704       -4.27626       -0.00004
Li         1.35871        4.50353        0.00003
