20
11040862_b3lyp_1_Li.log	Energy: -402690.0574860
C         -3.57928       -0.12816        0.47198
C         -2.38683       -0.93516       -0.02079
O         -2.56943       -2.09070       -0.36579
C         -1.00902       -0.33969       -0.03315
C          0.04163       -1.25970       -0.01403
C          1.39772       -0.87787        0.01359
O          2.39388       -1.71737        0.04986
C          1.62110        0.54339        0.00103
C          0.57827        1.48192       -0.04039
C         -0.75832        1.07475       -0.06122
O         -1.72566        1.97294       -0.13458
H         -3.97470        0.46492       -0.35903
H         -3.30964        0.55607        1.27731
H         -4.34995       -0.82952        0.79425
H          0.79809        2.54295       -0.06565
H         -0.19442       -2.31653       -0.01124
C          2.99582        0.85910        0.03055
N          4.16171        0.85432        0.05832
Li         4.07587       -1.21611        0.07766
Li        -2.84195        3.13994       -0.25274
