20
11040862_b3lyp_2_Li.log	Energy: -402694.4797667
C         -2.25790       -2.41064        0.00009
C         -0.74986       -2.28154       -0.00003
O         -0.05971       -3.29216       -0.00007
C         -0.10556       -0.92857       -0.00003
C          1.29309       -0.90498       -0.00003
C          2.07707        0.26614        0.00000
O          3.39979        0.21098       -0.00002
C          1.38605        1.48192        0.00002
C         -0.01775        1.49323        0.00002
C         -0.83279        0.30269        0.00001
O         -2.12964        0.41128        0.00001
H         -2.68778       -1.90978       -0.87019
H         -2.68762       -1.91044        0.87082
H         -2.51095       -3.47099       -0.00023
H          1.79936       -1.86379       -0.00006
H          1.94041        2.41369        0.00006
C         -0.80045        2.66534       -0.00003
N         -1.63884        3.47690       -0.00001
Li         4.99341       -0.05895        0.00013
Li        -2.99886        1.94581       -0.00006
