18
11122_b3lyp_1_Li.log	Energy: -331556.4231017
C          2.74943        1.50910       -0.00012
C          1.42685        0.79045       -0.00007
C          0.23806        1.50355       -0.00013
C         -1.03272        0.87743       -0.00012
O         -2.15965        1.53481       -0.00028
C         -1.00252       -0.55788        0.00011
C          0.20296       -1.29445        0.00015
C          1.42983       -0.64312        0.00005
O          2.57936       -1.30943        0.00002
H          3.34458        1.23612        0.87825
H          2.61082        2.59196       -0.00026
H          3.34464        1.23590       -0.87838
H          0.17904       -2.37831        0.00036
H          0.25355        2.58882       -0.00024
C         -2.29454       -1.11155        0.00025
N         -3.44472       -1.31823        0.00031
Li        -3.71723        0.71559       -0.00020
Li         3.95676       -2.14595        0.00002
