18
11122_b3lyp_2_Li.log	Energy: -331556.4500658
C          0.02039        2.92068        0.00003
C         -0.23411        1.43696        0.00003
C         -1.51441        0.90984        0.00001
C         -1.80789       -0.48328       -0.00003
O         -3.06673       -0.90574       -0.00003
C         -0.72764       -1.35775       -0.00001
C          0.58934       -0.84288        0.00002
C          0.88970        0.55826        0.00001
O          2.12258        0.99169       -0.00014
H          0.60658        3.21843        0.87513
H         -0.91774        3.48067        0.00055
H          0.60568        3.21858       -0.87562
H         -2.36363        1.58862        0.00002
H         -0.89778       -2.42814        0.00009
C          1.75923       -1.62482       -0.00001
N          2.84967       -2.04400       -0.00001
Li        -4.59335       -1.41884        0.00006
Li         3.50160       -0.10113        0.00025
