24
11228886_b3lyp_2_Li.log	Energy: -380906.1664898
C         -3.11715       -0.67285        1.27593
C         -2.32877       -1.02255        0.00001
C         -3.11715       -0.67269       -1.27587
C         -0.92209       -0.43510        0.00004
C          0.15201       -1.31555        0.00002
C          1.50544       -0.90031        0.00003
O          2.51441       -1.72727       -0.00003
C          1.69915        0.52080        0.00002
C          0.62018        1.42955        0.00004
C         -0.69769        0.98443        0.00008
O         -1.70618        1.85275       -0.00003
H         -3.26685        0.40535        1.36070
H         -2.58023       -1.00633        2.16801
H         -4.09666       -1.16295        1.26795
H         -3.26685        0.40552       -1.36050
H         -2.58023       -1.00606       -2.16798
H         -4.09666       -1.16280       -1.26795
H          0.80991        2.49713        0.00002
H         -2.20227       -2.11113       -0.00005
H         -0.02831       -2.38605       -0.00002
C          3.06154        0.86813       -0.00003
N          4.22969        0.89059       -0.00006
Li         4.18105       -1.16323       -0.00009
Li        -2.81383        3.02531       -0.00022
