24
11228886_b3lyp_3_Li.log	Energy: -380907.5011598
C          2.61275       -1.33657       -1.27078
C          1.78010       -1.58890        0.00017
C          2.61173       -1.33597        1.27167
C          0.47299       -0.80792       -0.00031
C         -0.73667       -1.48670       -0.00034
C         -2.01694       -0.86742       -0.00016
O         -3.12256       -1.60238        0.00012
C         -2.04326        0.52175       -0.00014
C         -0.82716        1.24047       -0.00031
C          0.46731        0.62152       -0.00044
O          1.55385        1.35185       -0.00064
H          2.91897       -0.29071       -1.32610
H          2.03554       -1.57303       -2.16946
H          3.51084       -1.96369       -1.27103
H          2.91792       -0.29007        1.32656
H          2.03378       -1.57193        2.17000
H          3.50986       -1.96301        1.27301
H          1.50147       -2.65000        0.00030
H         -0.72402       -2.57392       -0.00030
H         -2.99105        1.04744        0.00033
C         -0.73433        2.64491        0.00005
N         -0.41090        3.76724        0.00045
Li        -4.46021       -2.49975        0.00027
Li         1.52473        3.11024        0.00015
