24
11228886_b3lyp_1_Li.log	Energy: -380905.8761813
C         -2.17308        1.51810       -1.27579
C         -1.32087        1.38262        0.00006
C         -2.17326        1.51788        1.27581
C         -0.47520        0.11677       -0.00001
C          0.94263        0.22751        0.00004
C          1.85334       -0.88715        0.00003
O          3.14564       -0.71222        0.00011
C          1.23544       -2.15970       -0.00009
C         -0.13978       -2.27749       -0.00010
C         -1.03080       -1.17087       -0.00001
O         -2.34420       -1.39195        0.00001
H         -2.87803        0.68866       -1.36092
H         -1.54126        1.51250       -2.16793
H         -2.73615        2.45744       -1.26527
H         -2.87828        0.68849        1.36066
H         -1.54158        1.51205        2.16804
H         -2.73625        2.45728        1.26539
H          1.87348       -3.03646       -0.00014
H         -0.59200       -3.26542       -0.00017
H         -0.62857        2.23294        0.00019
C          1.64451        1.45000        0.00010
N          2.43963        2.30628       -0.00015
Li         3.89341        0.87784        0.00009
Li        -3.89600       -1.83251       -0.00009
