19
11309532_b3lyp_3_Li.log	Energy: -355459.8505673
C          1.90389       -2.96916        0.00018
C          0.61942       -2.58263        0.00011
C          0.06245       -1.22735       -0.00003
C         -1.32794       -1.09044        0.00001
C         -2.02412        0.14180       -0.00001
O         -3.35057        0.17509       -0.00007
C         -1.25046        1.30015        0.00006
C          0.15577        1.20046        0.00001
C          0.87359       -0.04418       -0.00018
O          2.17636       -0.05120       -0.00027
H          2.71079       -2.25150        0.00012
H          2.14919       -4.02606        0.00030
H         -0.14078       -3.36319        0.00020
H         -1.93322       -1.99316        0.00009
H         -1.73104        2.27161        0.00019
C          1.02834        2.30578        0.00020
N          1.92952        3.04809        0.00029
Li        -4.96243        0.19793       -0.00013
Li         3.15787        1.41139       -0.00063
