19
11355645_b3lyp_0_Li.log	Energy: -423458.6853933
C         -0.79090        1.77172       -0.00004
C         -1.60102        0.60018       -0.00000
C         -1.10484       -0.73539        0.00000
O         -1.88148       -1.76371       -0.00009
C          0.34514       -0.83732       -0.00000
N          0.91635       -2.05579        0.00004
C          2.23544       -2.11974        0.00005
C          3.03873       -0.96516        0.00002
N          2.51068        0.24829       -0.00003
C          1.14618        0.35503       -0.00004
C          0.59429        1.69736       -0.00009
O          1.40255        2.72758        0.00001
H         -1.25854        2.74880       -0.00001
H          2.69191       -3.10531        0.00010
H          4.12220       -1.04523        0.00003
C         -3.01065        0.61041        0.00009
N         -4.14927        0.35561        0.00012
Li        -3.64590       -1.63563       -0.00019
Li         3.05163        2.16610        0.00011
