21
12078641_b3lyp_0_Li.log	Energy: -426589.9284651
C         -1.27479        2.54446        0.00008
C         -0.91223        1.09484       -0.00003
C         -1.80462        0.05471       -0.00009
O         -1.14927       -1.18217       -0.00006
C          0.21555       -0.87064        0.00004
C          0.40516        0.51319        0.00001
C          1.73734        1.01676        0.00013
O          2.00404        2.31378       -0.00002
C          2.73771        0.02903       -0.00018
C          2.48087       -1.35457       -0.00017
C          1.17520       -1.88721        0.00018
O          0.81022       -3.15595        0.00023
H         -2.35717        2.68543       -0.00140
H         -0.85567        3.04071       -0.87909
H         -0.85832        3.03995        0.88097
H          3.76944        0.36744       -0.00044
H          3.31250       -2.05162       -0.00039
C         -3.20906        0.03182       -0.00008
N         -4.36871        0.00876       -0.00004
Li         2.59251        3.82127        0.00015
Li        -0.94468       -3.14886       -0.00010
