21
12078641_b3lyp_1_Li.log	Energy: -426609.4773002
C          1.20415       -3.15663        0.00035
C          1.43729       -1.67866        0.00002
C          2.63448       -1.04851        0.00015
O          2.48206        0.34374        0.00003
C          1.10872        0.57023       -0.00017
C          0.42690       -0.63474       -0.00027
C         -0.99818       -0.61411       -0.00044
O         -1.74471       -1.68017       -0.00074
C         -1.54829        0.71571       -0.00020
C         -0.78783        1.92371       -0.00006
C          0.60593        1.89420       -0.00007
O          1.44427        2.91147        0.00012
H          2.14845       -3.70598        0.00042
H          0.62412       -3.45571       -0.87596
H          0.62424       -3.45532        0.87687
H         -1.29677        2.88001        0.00010
H          3.65133       -1.40356        0.00037
C         -2.95483        0.67558        0.00014
N         -4.08553        0.38259        0.00052
Li        -3.51244       -1.57133        0.00069
Li         3.05392        2.23179        0.00019
