21
12078641_b3lyp_2_Li.log	Energy: -426600.3357629
C         -3.69714       -0.20478       -0.00017
C         -2.29819       -0.74203       -0.00003
C         -1.94712       -2.05503        0.00018
O         -0.59469       -2.23838       -0.00024
C         -0.04545       -0.98478       -0.00010
C         -1.04834       -0.01099        0.00020
C         -0.73058        1.38787        0.00038
O         -1.68364        2.30945        0.00037
C          0.62009        1.69984        0.00034
C          1.61978        0.68294        0.00011
C          1.34484       -0.72552       -0.00024
O          2.27668       -1.62894       -0.00012
H         -4.42517       -1.02030        0.00006
H         -3.88394        0.41442       -0.88238
H         -3.88387        0.41487        0.88172
H         -2.53791       -2.95748        0.00024
H          0.92076        2.74112        0.00048
C          3.00366        0.92297        0.00001
N          4.17108        0.86090       -0.00063
Li        -2.75209        3.51754        0.00030
Li         3.98419       -1.17717       -0.00023
