28
12344381_b3lyp_4_Li.log	Energy: -557644.4697223
C         -4.36608       -0.96743        0.00006
C         -4.39969        0.44965        0.00006
C         -3.22825        1.16577        0.00003
C         -1.96385        0.51843       -0.00001
C         -1.92769       -0.91651       -0.00001
C         -3.16178       -1.62487        0.00003
C         -0.68547       -1.61463       -0.00005
O         -0.64085       -2.92870        0.00002
C          0.50549       -0.83847       -0.00004
C          1.75477       -1.48707       -0.00002
C          2.95605       -0.79765       -0.00001
C          2.94351        0.62457       -0.00001
C          1.73877        1.29658       -0.00002
C          0.46293        0.61653       -0.00003
C         -0.76683        1.30968       -0.00004
O         -0.83596        2.61624       -0.00002
C          1.81901        2.72000       -0.00001
N          1.95320        3.87567       -0.00003
H         -5.29442       -1.52866        0.00009
H          3.87709        1.17223       -0.00000
H         -5.35398        0.96528        0.00009
H         -3.23449        2.24806        0.00003
H         -3.12920       -2.70724        0.00003
H          1.76243       -2.56893       -0.00002
C          4.19363       -1.50528       -0.00000
N          5.19657       -2.08383        0.00001
Li        -0.66394       -4.55500        0.00011
Li        -0.03889        4.11506        0.00002
