28
12344381_b3lyp_2_Li.log	Energy: -557661.1858768
C          3.34398        1.69349        0.00022
C          2.47319        2.79970        0.00037
C          1.11331        2.59359        0.00022
C          0.54244        1.29668       -0.00006
C          1.41230        0.14381       -0.00020
C          2.83250        0.40498       -0.00009
C          0.88102       -1.17244       -0.00044
O          1.64399       -2.23659       -0.00012
C         -0.54240       -1.29667       -0.00022
C         -1.11329       -2.59358       -0.00014
C         -2.47318       -2.79970        0.00003
C         -3.34396       -1.69348        0.00014
C         -2.83245       -0.40497        0.00006
C         -1.41228       -0.14379       -0.00012
C         -0.88102        1.17248       -0.00017
O         -1.64389        2.23665       -0.00017
C         -3.78519        0.65120        0.00023
N         -4.61440        1.46873        0.00064
H          4.41747        1.84189        0.00028
H         -0.42593       -3.43018       -0.00022
H         -2.88095       -3.80340        0.00009
H         -4.41745       -1.84187        0.00030
H          2.88097        3.80341        0.00063
H          0.42593        3.43018        0.00035
C          3.78525       -0.65121       -0.00030
N          4.61425       -1.46897        0.00002
Li         3.21309       -2.89178       -0.00008
Li        -3.21340        2.89194       -0.00023
