28
12344381_b3lyp_5_Li.log	Energy: -557640.8807949
C         -4.52755       -0.33955        0.00004
C         -4.06739       -1.68067        0.00004
C         -2.72008       -1.94148        0.00002
C         -1.76119       -0.89220       -0.00000
C         -2.22436        0.46648       -0.00001
C         -3.62873        0.69716        0.00001
C         -1.30411        1.55497       -0.00005
O         -1.73094        2.80479        0.00004
C          0.07493        1.25338       -0.00003
C          1.03200        2.30286       -0.00003
C          2.38144        2.07902       -0.00002
C          2.87348        0.74317       -0.00001
C          1.97122       -0.32502       -0.00001
C          0.55098       -0.12374       -0.00002
C         -0.36625       -1.21320       -0.00002
O          0.02790       -2.45620       -0.00005
C          2.52870       -1.63826        0.00000
N          3.04664       -2.67867        0.00000
H         -5.59335       -0.13647        0.00006
H         -4.78228       -2.49625        0.00006
H         -2.34851       -2.95809        0.00003
H         -3.97737        1.72233        0.00001
H          0.65571        3.31784       -0.00003
H          3.08939        2.89758       -0.00001
C          4.28256        0.52834        0.00000
N          5.43189        0.39326        0.00002
Li        -2.39478        4.28320        0.00016
Li         1.28049       -3.60506       -0.00007
