28
12344381_b3lyp_3_Li.log	Energy: -557655.9720914
C          4.16147        0.71025        0.00026
C          4.16188       -0.70780        0.00003
C          2.97512       -1.39707       -0.00021
C          1.72722       -0.71585       -0.00024
C          1.72680        0.71689        0.00001
C          2.97430        1.39883        0.00025
C          0.50819        1.46497        0.00002
O          0.52415        2.77394        0.00033
C         -0.70395        0.73218        0.00000
C         -1.97981        1.38817        0.00025
C         -3.18399        0.70146        0.00024
C         -3.18356       -0.70334       -0.00003
C         -1.97897       -1.38930       -0.00027
C         -0.70351       -0.73254       -0.00027
C          0.50905       -1.46464       -0.00051
O          0.52578       -2.77361       -0.00028
C         -2.08041       -2.81487       -0.00056
N         -2.26477       -3.96328       -0.00092
H          5.10335        1.24846        0.00046
H         -4.12026        1.24453        0.00043
H         -4.11950       -1.24699       -0.00006
H          5.10407       -1.24546        0.00005
H          2.95660       -2.47926       -0.00039
H          2.95515        2.48101        0.00043
C         -2.08220        2.81367        0.00055
N         -2.26787        3.96188        0.00087
Li        -0.27420        4.26696        0.00056
Li        -0.27118       -4.26737        0.00004
