29
12506460_b3lyp_3_Li.log	Energy: -547548.3804122
C          4.83637        1.32339        0.00019
C          3.84667        0.61559        0.00006
C          2.82527       -0.38574        0.00003
C          1.40128       -0.13173        0.00004
C          0.52610       -1.28249        0.00003
C          1.08600       -2.58489        0.00001
C          2.44306       -2.79123        0.00001
C          3.31504       -1.68567        0.00002
C         -0.89840       -1.16002        0.00003
O         -1.66016       -2.22732       -0.00017
C         -1.43507        0.15062        0.00001
C         -2.85639        0.40940       -0.00001
C         -3.36948        1.69740       -0.00004
C         -2.50002        2.80485       -0.00006
C         -1.13933        2.60005       -0.00003
C         -0.56653        1.30447        0.00000
C          0.85562        1.18001        0.00003
O          1.60865        2.25153        0.00000
H          5.76793        1.83842       -0.00051
H         -4.44325        1.84434       -0.00005
H         -2.90886        3.80819       -0.00008
H         -0.45352        3.43798       -0.00004
H          0.39371       -3.41700       -0.00000
H          2.85150       -3.79522       -0.00000
H          4.38716       -1.84336        0.00002
C         -3.80732       -0.64787        0.00005
N         -4.63659       -1.46596        0.00019
Li        -3.22588       -2.88185       -0.00057
Li         3.19135        2.78116        0.00007
