29
12506460_b3lyp_0_Li.log	Energy: -547544.4280463
C         -3.05366       -3.58623       -0.00017
C         -2.52323       -2.49258       -0.00001
C         -2.13939       -1.11027       -0.00002
C         -0.78486       -0.63034       -0.00005
C         -0.57359        0.81963       -0.00003
C         -1.73886        1.66062        0.00001
C         -3.02549        1.14924        0.00003
C         -3.22364       -0.23925        0.00002
C          0.72814        1.37652       -0.00006
O          0.92478        2.67282        0.00002
C          1.83261        0.47185       -0.00002
C          3.16313        0.97399        0.00003
C          4.24291        0.12719        0.00007
C          4.04568       -1.27776        0.00006
C          2.77447       -1.79461        0.00001
C          1.63294       -0.94589       -0.00003
C          0.32309       -1.51511       -0.00009
O          0.16891       -2.81541        0.00000
H         -3.62520       -4.48454       -0.00020
H         -3.87682        1.81840        0.00006
H         -4.23003       -0.63740        0.00004
H          3.29366        2.04852        0.00004
H          5.25070        0.52897        0.00011
H          4.90381       -1.94159        0.00009
H          2.60561       -2.86375       -0.00001
C         -1.63981        3.08392        0.00002
N         -1.66691        4.24792        0.00005
Li         0.34534        4.26038        0.00014
Li        -0.89383       -4.09001        0.00011
