29
12506460_b3lyp_1_Li.log	Energy: -547532.2508680
C         -2.34689        3.82433       -0.00008
C         -1.97757        2.66606        0.00016
C         -1.76310        1.24925        0.00010
C         -0.46661        0.60342        0.00008
C         -0.45577       -0.85334       -0.00001
C         -1.67835       -1.55391       -0.00006
C         -2.89894       -0.90657       -0.00003
C         -2.93460        0.51535        0.00005
C          0.75912       -1.59162       -0.00004
O          0.75460       -2.90864       -0.00012
C          1.97922       -0.86033       -0.00002
C          3.23546       -1.52972       -0.00009
C          4.41810       -0.83449       -0.00007
C          4.40682        0.58366        0.00001
C          3.21321        1.26184        0.00007
C          1.96924        0.57444        0.00006
C          0.74820        1.32468        0.00014
O          0.78644        2.63338        0.00015
H         -2.78554        4.79432        0.00014
H         -3.89012        1.02336        0.00006
H          3.23659       -2.61266       -0.00015
H          5.36389       -1.36608       -0.00012
H          5.34432        1.12943        0.00002
H          3.18523        2.34384        0.00014
H         -1.64383       -2.63492       -0.00012
C         -4.11331       -1.65401       -0.00009
N         -5.09870       -2.26241       -0.00014
Li         0.80993       -4.53081       -0.00022
Li        -0.14769        4.01327        0.00009
