29
12506460_b3lyp_5_Li.log	Energy: -547532.9928233
C         -3.49660       -3.30204       -0.00043
C         -3.05947       -2.16695       -0.00001
C         -2.76417       -0.76607        0.00002
C         -1.43867       -0.19195       -0.00018
C         -1.33944        1.25389       -0.00013
C         -2.53087        2.02607        0.00010
C         -3.77476        1.44784        0.00027
C         -3.89228        0.04368        0.00023
C         -0.07995        1.91700       -0.00030
O         -0.00816        3.23736        0.00011
C          1.08805        1.12085       -0.00019
C          2.38827        1.70952       -0.00001
C          3.52657        0.95468        0.00010
C          3.43021       -0.47349        0.00006
C          2.18843       -1.07752       -0.00010
C          0.99603       -0.31607       -0.00023
C         -0.26215       -0.99186       -0.00040
O         -0.30853       -2.29634       -0.00003
H         -3.99084       -4.24486        0.00025
H          2.10094       -2.15582       -0.00014
H         -2.42661        3.10344        0.00013
H         -4.67011        2.05904        0.00044
H         -4.87285       -0.41706        0.00037
H          2.45804        2.78999        0.00003
H          4.50510        1.41965        0.00023
C          4.61826       -1.26484        0.00018
N          5.59030       -1.89402        0.00027
Li         0.22063        4.83957        0.00061
Li        -1.31633       -3.62654        0.00017
