29
12506460_b3lyp_4_Li.log	Energy: -547533.1765198
C         -4.50300       -2.26595       -0.00023
C         -3.71661       -1.33775       -0.00000
C         -2.97983       -0.11029        0.00000
C         -1.53859        0.00045       -0.00001
C         -0.97952        1.33867       -0.00003
C         -1.85410        2.45635       -0.00005
C         -3.21832        2.31392       -0.00003
C         -3.78280        1.02287       -0.00001
C          0.42540        1.55636       -0.00004
O          0.92814        2.77550       -0.00006
C          1.27013        0.41519       -0.00000
C          2.67920        0.55951        0.00000
C          3.51969       -0.53477        0.00004
C          2.97165       -1.85646        0.00008
C          1.61422       -2.02173        0.00007
C          0.71807       -0.91447        0.00003
C         -0.68673       -1.13928        0.00002
O         -1.16003       -2.35989        0.00009
H         -5.27931       -2.99422       -0.00009
H          3.63976       -2.70893        0.00011
H          1.18005       -3.01320        0.00009
H         -1.40470        3.44118       -0.00006
H         -3.86752        3.18195       -0.00004
H         -4.85989        0.90476       -0.00001
H          3.09772        1.55699       -0.00002
C          4.93474       -0.34113        0.00005
N          6.08145       -0.18092        0.00005
Li         1.72653        4.18931       -0.00007
Li        -2.54745       -3.28132        0.00010
