29
12506460_b3lyp_6_Li.log	Energy: -547533.7235838
C          3.05185        3.35251        0.00040
C          2.69373        2.19897       -0.00018
C          2.50947        0.77769       -0.00011
C          1.22628        0.11591       -0.00006
C          1.20699       -1.32894        0.00003
C          2.44017       -2.03661        0.00006
C          3.64348       -1.38166        0.00002
C          3.67678        0.02792       -0.00006
C         -0.01682       -2.05492        0.00012
O         -0.02429       -3.37745        0.00001
C         -1.22815       -1.32161        0.00008
C         -2.47938       -1.99299        0.00014
C         -3.67706       -1.31982        0.00012
C         -3.68659        0.09101        0.00003
C         -2.49044        0.79031       -0.00003
C         -1.21321        0.12308       -0.00002
C          0.00511        0.85518       -0.00012
O         -0.00065        2.15602       -0.00006
H          3.33590        4.37560        0.00055
H          2.40344       -3.11838        0.00014
H          4.57475       -1.93769        0.00005
H          4.62772        0.54658       -0.00009
H         -2.46397       -3.07582        0.00021
H         -4.61595       -1.86104        0.00017
H         -4.62503        0.63260        0.00001
C         -2.59103        2.21294       -0.00012
N         -2.76779        3.36416       -0.00026
Li         0.07336       -4.99184       -0.00011
Li        -0.76998        3.66073       -0.00008
