18
12527779_b3lyp_0_Li.log	Energy: -495664.3797901
C          1.10418        1.77345        0.00016
C          1.86301        0.61811        0.00008
C          1.27291       -0.72925        0.00002
O          1.97065       -1.79913        0.00022
C         -0.13090       -0.70110       -0.00004
C         -0.90129        0.48578        0.00011
C         -0.34718        1.77696        0.00030
O         -1.04191        2.85777        0.00001
C         -2.27097        0.09912        0.00009
O         -3.29673        0.78405       -0.00011
O         -2.34084       -1.29323       -0.00019
C         -1.03771       -1.79559       -0.00033
O         -0.83130       -3.01152       -0.00024
H          1.59997        2.73765        0.00016
C          3.28986        0.71686        0.00004
N          4.44145        0.81202        0.00001
Li         1.01987       -3.33582        0.00020
Li        -2.82672        2.60534       -0.00033
