24
12587549_b3lyp_2_Li.log	Energy: -451288.5592806
C          3.00363        0.02916        0.62005
C          2.14871        1.13133       -0.02628
C          0.67449        0.79717       -0.03232
C          0.26179       -0.53232       -0.02115
C          1.23677       -1.68865       -0.06948
C          2.70420       -1.31616       -0.00307
O          3.57447       -2.05576       -0.41539
C         -1.12119       -0.87136        0.00322
O         -1.53704       -2.10911        0.02224
C         -2.03871        0.22601        0.00539
C         -1.61814        1.57220       -0.02363
C         -0.26465        1.88108       -0.05115
O          0.16237        3.13797       -0.09818
H          2.74794       -0.03626        1.68600
H          4.07287        0.23189        0.53584
H          2.49401        1.30859       -1.05440
H          1.07609       -2.29960       -0.96307
H         -2.34731        2.37396       -0.02862
H          2.29605        2.07562        0.50296
H          1.03642       -2.37206        0.76745
C         -3.37644       -0.20951        0.03235
N         -4.37756       -0.81042        0.05521
Li        -3.24926       -2.52786        0.04991
Li         0.58448        4.69193       -0.21841
