16
12754795_b3lyp_1_Li.log	Energy: -364793.1250471
C         -0.68405       -2.08914        0.00058
C          0.68432       -2.08902        0.00061
C          1.46124       -0.88065       -0.00009
O          2.75693       -0.89303       -0.00046
C          0.71642        0.33272       -0.00016
C         -0.71645        0.33261       -0.00016
C         -1.46117       -0.88088       -0.00011
O         -2.75669       -0.89331       -0.00068
C          1.54991        1.46111        0.00013
N          2.44856        2.20668        0.00016
H         -1.23723       -3.02213        0.00086
H          1.23766       -3.02192        0.00092
C         -1.55013        1.46079        0.00018
N         -2.44912        2.20595        0.00056
Li         3.72317        0.59316       -0.00049
Li        -3.72282        0.59388       -0.00069
