18
12838779_b3lyp_0_Li.log	Energy: -425218.8435214
C          2.43141       -1.69297        0.20836
O          2.54397       -0.27025       -0.07906
C          1.20591        0.17197       -0.01259
C          0.36690       -0.90775       -0.02983
O          1.11909       -2.07805       -0.13620
C         -1.03168       -0.74926       -0.01993
O         -1.90643       -1.70852       -0.04739
C         -1.40033        0.65203        0.01733
C         -0.50196        1.75160        0.02578
C          0.88358        1.54327        0.00121
O          1.84784        2.44121       -0.01465
H          2.60186       -1.82983        1.28473
H          3.15164       -2.23942       -0.39785
H         -0.88560        2.76404        0.05298
C         -2.80231        0.78633        0.03708
N         -3.95992        0.63748        0.04426
Li        -3.64294       -1.38540       -0.03173
Li         3.34516        1.53084       -0.10021
