23
12913941_b3lyp_3_Li.log	Energy: -427359.4686224
C          2.55432        0.31417       -0.00375
C          3.02371       -1.08783        0.37287
O          2.33574       -2.07336       -0.38362
C          0.95168       -2.11972       -0.05195
C          0.29380       -0.75913       -0.02195
C          1.04710        0.40791       -0.01309
C          0.43455        1.70324       -0.01599
O          1.18801        2.79632       -0.03618
C         -0.95234        1.76693        0.00168
C         -1.71820        0.58019        0.01108
C         -1.12662       -0.72278        0.00075
O         -1.85503       -1.80855        0.00899
H          2.96189        1.04875        0.70004
H          2.94778        0.58252       -0.99282
H          2.86427       -1.26567        1.44840
H          0.47220       -2.74985       -0.80251
H          4.08665       -1.22354        0.16136
H          0.82031       -2.62303        0.91993
H         -1.44178        2.73391        0.00665
C         -3.12303        0.51617        0.02705
N         -4.24789        0.20103        0.04047
Li         2.07060        4.14325       -0.12250
Li        -3.61583       -1.75010        0.02981
