20
129814774_b3lyp_0_Li.log	Energy: -447343.6356486
C          1.91234        1.28419       -0.00014
C          1.87437       -0.12235        0.00008
C          0.65653       -0.87798        0.00023
O          0.65258       -2.18412        0.00045
C         -0.52752       -0.09726        0.00014
C         -0.48574        1.28753       -0.00008
C          0.72611        2.02362       -0.00023
O          0.71666        3.34360       -0.00041
C         -1.84639       -0.87166        0.00025
C         -2.64671       -0.62132        1.20905
N         -3.25245       -0.42712        2.17019
C         -2.64616       -0.62251       -1.20915
N         -3.25150       -0.42926       -2.17073
H          2.86338        1.80352       -0.00023
H         -1.41283        1.85300       -0.00013
H         -1.56347       -1.93317        0.00084
C          3.00616       -0.96462        0.00012
N          3.75963       -1.85424        0.00024
Li         2.14651       -3.13659        0.00040
Li         0.59727        4.95971       -0.00050
