19
130029656_b3lyp_1_Li.log	Energy: -389470.8035600
C          0.39342        2.64664       -0.00008
C          0.17205        1.16132        0.00001
C          1.22427        0.23237       -0.00005
C          1.07677       -1.21112       -0.00007
O          2.12429       -1.98729       -0.00002
C         -0.24513       -1.67529       -0.00013
C         -1.30603       -0.75867       -0.00003
C         -1.15596        0.67289        0.00001
O         -2.19713        1.46185        0.00005
C          2.59333        0.59686        0.00003
N          3.75698        0.64270        0.00010
H          1.45448        2.90459       -0.00034
H         -0.07792        3.10407        0.87497
H         -0.07824        3.10378       -0.87510
H         -0.42742       -2.74255        0.00012
C         -2.67192       -1.12908       -0.00000
N         -3.83536       -1.18068        0.00005
Li         3.78458       -1.42774        0.00014
Li        -3.85931        0.88906        0.00013
