19
130029656_b3lyp_0_Li.log	Energy: -389458.6309016
C          2.51009        1.49176        0.00003
C          1.33799        0.55189       -0.00001
C          0.00833        1.02272        0.00002
C         -1.15864        0.17703        0.00010
O         -2.35125        0.67428        0.00008
C         -0.88004       -1.22031        0.00001
C          0.43810       -1.68725        0.00003
C          1.56097       -0.83842        0.00004
O          2.78958       -1.33508        0.00003
C         -0.36135        2.38513        0.00006
N         -0.91022        3.41419       -0.00015
H          2.19902        2.53833        0.00116
H          3.14102        1.32203       -0.87873
H          3.14219        1.32043        0.87762
H          0.61387       -2.75735       -0.00002
C         -1.96394       -2.14672       -0.00006
N         -2.82232       -2.92305       -0.00006
Li        -2.70971        2.39911       -0.00005
Li         4.23506       -2.06244       -0.00020
