23
130412007_b3lyp_3_Li.log	Energy: -404059.4468620
C          3.12228       -1.08509        0.41420
C          2.58210        0.21326       -0.20128
C          1.08087        0.35330       -0.07528
C          0.30536       -0.81343       -0.10229
C          0.96017       -2.11940       -0.19264
C          2.27332       -2.27071        0.03179
C         -1.11897       -0.75224       -0.05145
O         -1.88276       -1.80943       -0.07809
C         -1.68077        0.56442        0.03591
C         -0.89395        1.73345        0.05786
C          0.49461        1.65140       -0.01197
O          1.25017        2.74437       -0.02964
H          3.13804       -0.99559        1.51182
H          4.16280       -1.23520        0.10872
H          3.06768        1.08278        0.24724
H         -1.36497        2.70795        0.11698
H          2.83758        0.23561       -1.27224
H          0.32314       -2.96831       -0.41083
H          2.72993       -3.25518       -0.00151
C         -3.08621        0.53351        0.09049
N         -4.21908        0.25055        0.12229
Li        -3.63757       -1.71442        0.00007
Li         2.12665        4.09566       -0.08888
