23
130412007_b3lyp_0_Li.log	Energy: -404048.4133135
C         -1.27186       -2.20779       -0.75279
C         -1.53571       -0.69509       -0.52678
C         -0.28928        0.16396       -0.32266
C          0.95120       -0.44815       -0.03577
C          1.00300       -1.88750        0.18637
C         -0.02393       -2.70928       -0.07704
C          2.11293        0.34900        0.10616
O          3.30419       -0.18326        0.35095
C          1.95851        1.74637       -0.02491
C          0.72454        2.33560       -0.24539
C         -0.45638        1.56256       -0.35894
O         -1.65680        2.11630       -0.44903
H         -1.17363       -2.35285       -1.83665
H         -2.14736       -2.79068       -0.45236
H         -2.05773       -0.30121       -1.40890
H          1.91975       -2.28083        0.61093
H          0.04490       -3.77257        0.12815
H          2.84625        2.36408        0.07402
H          0.63126        3.41501       -0.30847
C         -2.48820       -0.40406        0.55421
N         -3.25092       -0.01818        1.33829
Li         4.80250       -0.72086        0.59854
Li        -3.00085        1.90360        0.59984
