28
13182761_b3lyp_0_Li.log	Energy: -557631.8562655
C         -3.66043        1.02799       -0.00002
C         -3.65826       -0.40267        0.00002
C         -2.45913       -1.08577        0.00002
C         -1.21593       -0.40953       -0.00001
C         -1.21439        1.03453       -0.00005
C         -2.47323        1.70472       -0.00005
C         -0.00000        1.76780       -0.00010
O         -0.00000        3.08750        0.00005
C          1.21439        1.03453       -0.00005
C          1.21593       -0.40953       -0.00001
C          0.00000       -1.14959        0.00001
O          0.00000       -2.46231       -0.00007
C          2.45913       -1.08577        0.00002
C          3.65826       -0.40267        0.00002
C          3.66043        1.02799       -0.00002
C          2.47323        1.70472       -0.00005
C          4.89093       -1.12281        0.00005
N          5.89160       -1.70512        0.00007
H         -4.60558        1.55713       -0.00002
H         -2.45612       -2.16741        0.00005
H         -2.46896        2.78712       -0.00008
H          2.45612       -2.16741        0.00005
H          4.60558        1.55713       -0.00002
H          2.46896        2.78712       -0.00008
C         -4.89093       -1.12281        0.00005
N         -5.89160       -1.70512        0.00008
Li         0.00000        4.70821        0.00022
Li         0.00000       -4.09161       -0.00016
