28
13182761_b3lyp_1_Li.log	Energy: -557645.5544082
C         -3.83967        1.34072       -0.00013
C         -3.92006       -0.06629       -0.00008
C         -2.76054       -0.82478        0.00002
C         -1.44897       -0.22573        0.00012
C         -1.39225        1.22101        0.00010
C         -2.60902        1.95190       -0.00003
C         -0.15042        1.91426        0.00022
O         -0.10915        3.23418       -0.00040
C          1.03592        1.14069        0.00009
C          0.97989       -0.29855        0.00010
C         -0.26132       -1.00758        0.00018
O         -0.28650       -2.31215        0.00037
C          2.19080       -1.03037        0.00001
C          3.41666       -0.39531       -0.00009
C          3.47759        1.03390       -0.00012
C          2.32088        1.76062       -0.00003
C          4.62487       -1.15640       -0.00016
N          5.61265       -1.75995       -0.00023
H         -4.74962        1.92901       -0.00024
H         -2.53807        3.03227       -0.00005
H          2.12978       -2.11047        0.00001
H          4.44414        1.52311       -0.00020
H          2.36474        2.84234       -0.00004
H         -4.88427       -0.56038       -0.00015
C         -2.93352       -2.23831        0.00001
N         -3.14795       -3.38239        0.00031
Li         0.10095        4.84209       -0.00115
Li        -1.18077       -3.76020        0.00084
