22
134204124_b3lyp_0_Li.log	Energy: -380134.6366273
C          2.68196        1.28443        0.00009
C          1.42388        0.44606        0.00005
C          0.14874        1.05641        0.00001
C         -1.03222        0.24229       -0.00005
O         -2.24638        0.71719       -0.00009
C         -0.82700       -1.17666       -0.00002
C          0.44642       -1.76865        0.00003
C          1.58815       -0.97483        0.00006
O          2.79471       -1.53537        0.00005
C          0.05673        2.52125        0.00003
C         -1.03151        3.30969       -0.00002
H          2.73974        1.93157        0.88131
H          2.73977        1.93161       -0.88110
H          3.55446        0.63426        0.00009
H          0.55037       -2.84749        0.00005
H          1.01262        3.03376        0.00010
H         -0.90585        4.38787        0.00001
H         -2.03235        2.90732       -0.00009
C         -2.03949       -1.89045       -0.00004
N         -3.14722       -2.26045       -0.00006
Li        -3.69119       -0.28911       -0.00018
Li         4.18825       -2.34673        0.00004
