19
141161619_b3lyp_2_Li.log	Energy: -425874.0689114
C          0.47087        0.10917       -0.00030
C         -0.92168       -0.15908       -0.00027
C         -1.88911        0.87395       -0.00036
C         -1.34510        2.23443       -0.00008
C         -0.00943        2.47670       -0.00007
C          0.99639        1.41063       -0.00043
C          1.13301       -1.18268       -0.00008
C          0.19535       -2.20217        0.00026
C         -1.12709       -1.59211       -0.00023
O         -3.15083        0.67428       -0.00012
O          2.24982        1.71055        0.00019
O         -2.24261       -2.20316        0.00037
H          0.38647       -3.26471        0.00063
H         -2.06329        3.04731        0.00015
H          0.37160        3.49268        0.00020
C          2.53605       -1.26320        0.00000
N          3.69744       -1.17696        0.00009
Li        -3.64680       -1.06447        0.00038
Li         3.75897        0.82324        0.00102
