19
141161619_b3lyp_3_Li.log	Energy: -425858.0209109
C         -0.52042       -0.73609        0.00003
C         -0.10726        0.63277        0.00000
C         -1.00829        1.71410       -0.00001
C         -2.41522        1.32748       -0.00001
C         -2.80732        0.02246       -0.00002
C         -1.86959       -1.08812        0.00006
C          0.66605       -1.54908        0.00031
C          1.78307       -0.74255       -0.00000
C          1.33531        0.67279       -0.00006
O         -0.66292        2.95206        0.00007
O         -2.31869       -2.31279       -0.00007
O          2.07419        1.69216       -0.00012
H         -3.14582        2.12944       -0.00005
H         -3.86309       -0.23115       -0.00006
H          0.68212       -2.63030        0.00046
C          3.13092       -1.16400       -0.00005
N          4.23585       -1.51269       -0.00004
Li         1.10751        3.23868        0.00002
Li        -2.83692       -3.86175       -0.00023
