19
141161619_b3lyp_1_Li.log	Energy: -425867.0566318
C         -0.12833       -0.99335       -0.00007
C         -1.06662        0.07273        0.00007
C         -0.73186        1.44177        0.00037
C          0.68831        1.70486        0.00008
C          1.59865        0.66845       -0.00007
C          1.24591       -0.76632       -0.00007
C         -0.88326       -2.24184       -0.00001
C         -2.22007       -1.97976        0.00019
C         -2.40594       -0.52587       -0.00032
H         -0.42155       -3.21999        0.00013
O         -1.58606        2.40977        0.00028
O          2.18711       -1.65688       -0.00019
O         -3.49831        0.09869        0.00013
H         -3.03377       -2.69012        0.00047
H          1.01603        2.73806        0.00011
C          3.00568        0.85096       -0.00014
N          4.16370        0.74255       -0.00022
Li        -3.29688        1.91490        0.00001
Li         3.91577       -1.32428       -0.00039
