20
141265078_b3lyp_2_Li.log	Energy: -379355.1344026
C         -4.24862       -0.31487        1.01529
C         -3.34257       -0.64580        0.28506
C         -2.27614       -1.06831       -0.62718
C         -0.89418       -0.50010       -0.34124
C          0.18110       -1.36456       -0.20381
C          1.50349       -0.89501       -0.01804
O          2.53597       -1.68237        0.11266
C          1.63692        0.53466        0.01074
C          0.54445        1.41580       -0.12525
C         -0.74974        0.92428       -0.29458
O         -1.80525        1.71120       -0.40440
H         -5.04845       -0.15575        1.69977
H         -2.58179       -0.78963       -1.64441
H          0.69674        2.48817       -0.09590
H         -2.23712       -2.16155       -0.59838
H          0.03681       -2.43972       -0.24306
C          2.97779        0.92846        0.18899
N          4.13354        0.99181        0.34015
Li         4.16889       -1.06278        0.32444
Li        -3.38280        1.66208        0.17390
