20
141333781_b3lyp_2_Li.log	Energy: -402679.7912861
C         -2.65334       -0.60094        0.09611
C         -2.30026       -2.08008       -0.17001
O         -0.88093       -2.22262        0.07878
C         -0.34331       -0.96049        0.02971
C         -1.29152        0.04430        0.01607
C         -0.96213        1.42334       -0.00577
O         -1.90964        2.35220       -0.00240
C          0.39779        1.72690       -0.02602
C          1.36184        0.68796       -0.01141
C          1.05188       -0.71604        0.01995
O          1.97192       -1.63551        0.03792
H         -3.35821       -0.20777       -0.64109
H         -3.09954       -0.45289        1.08765
H         -2.82122       -2.78799        0.47518
H         -2.48564       -2.34783       -1.21648
H          0.71671        2.76217       -0.04996
C          2.75418        0.89341       -0.02628
N          3.91887        0.80555       -0.03038
Li        -2.99291        3.54600        0.01381
Li         3.68435       -1.23511        0.02248
