19
152386883_b3lyp_1_Li.log	Energy: -389464.7846931
C          1.27310       -2.06211        0.12401
C         -0.08684       -2.21774       -0.01821
C         -0.99382       -1.12708       -0.19013
O         -2.28893       -1.33897       -0.30967
C         -0.43368        0.15571       -0.21668
C          0.97211        0.32191       -0.06752
C          1.87957       -0.77665        0.10959
O          3.15937       -0.58545        0.24377
C         -1.30707        1.36972       -0.48580
C         -2.60427        1.31272        0.18429
N         -3.64573        1.25813        0.68711
H          1.92205       -2.92120        0.25338
H         -0.81384        2.29321       -0.16654
H         -1.51789        1.47915       -1.55910
H         -0.52413       -3.21096       -0.00395
C          1.65461        1.55006       -0.07673
N          2.42935        2.42479       -0.05016
Li        -3.78289       -0.73886        0.23586
Li         3.90382        1.01071        0.22008
