19
152386883_b3lyp_0_Li.log	Energy: -389453.7871554
C         -1.98885        0.00575        0.19446
C         -1.03080        1.03121        0.05773
C          0.34136        0.78977       -0.28070
O          1.20175        1.76307       -0.39839
C          0.68632       -0.57535       -0.47847
C         -0.26557       -1.57248       -0.34544
C         -1.62239       -1.32408       -0.00550
O         -2.48332       -2.32329        0.11465
C          2.12519       -0.89476       -0.83932
C          2.98884       -1.07528        0.33157
N          3.66910       -1.23537        1.24969
H         -3.01231        0.24618        0.45757
H          0.02298       -2.60885       -0.49941
H          2.17775       -1.80832       -1.43858
H          2.53870       -0.07377       -1.43140
C         -1.28331        2.40459        0.24688
N         -1.23571        3.56576        0.35127
Li         0.77174        3.44715       -0.08596
Li        -3.50939       -3.55460        0.31523
