18
15699186_b3lyp_0_Li.log	Energy: -401922.2887929
C          0.24057        1.69976       -0.00002
C          1.26953        0.71122        0.00003
C          1.03990       -0.70682        0.00008
O          1.99982       -1.57973        0.00018
C         -0.34162       -1.00770       -0.00002
C         -1.36769       -0.06002       -0.00005
C         -1.09979        1.34659        0.00003
O         -2.08946        2.22591        0.00019
C         -2.58857       -0.82053       -0.00010
C         -2.22057       -2.12707       -0.00014
O         -0.86525       -2.27528       -0.00009
H          0.51226        2.74897       -0.00011
H         -3.59730       -0.44023       -0.00011
H         -2.78552       -3.04507       -0.00018
C          2.64553        0.99325       -0.00007
N          3.81428        0.96686       -0.00024
Li         3.69322       -1.07542        0.00006
Li        -3.24458        3.35174        0.00039
