21
15736817_b3lyp_1_Li.log	Energy: -426604.2697321
C         -3.77650       -1.77062       -0.00007
C         -2.55741       -0.92001       -0.00010
C         -2.36565        0.42740       -0.00013
C         -0.94437        0.64551        0.00005
C         -0.37576       -0.62930        0.00014
O         -1.36091       -1.58584        0.00005
C          1.01022       -0.89960        0.00012
O          1.54803       -2.08177        0.00020
C          1.78397        0.31194        0.00015
C          1.22903        1.62614        0.00011
C         -0.14224        1.83071        0.00002
O         -0.70296        3.03074       -0.00005
H         -3.80570       -2.41656        0.88315
H         -3.80407       -2.41885       -0.88164
H         -4.67035       -1.14510       -0.00168
H          1.89264        2.48314        0.00015
H         -3.14067        1.17724       -0.00010
C          3.15878        0.02729       -0.00001
N          4.22293       -0.45759       -0.00020
Li         3.30305       -2.28332       -0.00052
Li        -1.31169        4.52381       -0.00007
