21
15736817_b3lyp_0_Li.log	Energy: -426600.5619682
C         -1.36486       -3.17884       -0.00019
C         -0.76149       -1.82310       -0.00012
C         -1.30819       -0.56349        0.00006
C         -0.21386        0.39070       -0.00000
C          0.94239       -0.39076       -0.00004
O          0.58938       -1.74317       -0.00019
C          2.24504        0.12516       -0.00001
O          3.32816       -0.63745       -0.00044
C          2.26514        1.53308        0.00016
C          1.11419        2.33912        0.00020
C         -0.18901        1.80652        0.00002
O         -1.29951        2.51610        0.00006
H         -1.05114       -3.74439        0.88290
H         -1.05116       -3.74431       -0.88335
H         -2.45347       -3.11124       -0.00017
H          3.24124        2.00899        0.00029
H          1.22042        3.41885        0.00035
C         -2.65782       -0.17620        0.00026
N         -3.72752        0.28201        0.00079
Li         4.58425       -1.64319       -0.00098
Li        -2.97980        2.22355       -0.00003
