27
18771_b3lyp_0_Li.log	Energy: -1066701.9891066
S          1.37320       -1.78191       -0.66695
S          2.06300        1.41992       -0.92626
O         -1.44344       -2.27749       -0.30020
O         -0.19036        3.11884       -0.05405
N          4.42526       -2.74822        1.08536
N          5.17391        1.42372        1.02871
C         -2.18021       -0.00558        0.00838
C         -1.85171        1.38566        0.08127
C          0.12447       -0.51894       -0.47349
C          0.43210        0.85729       -0.45664
C         -1.17044       -1.00344       -0.26302
C         -0.49729        1.85035       -0.13799
C         -3.55012       -0.35975        0.23549
C         -2.85857        2.33180        0.35765
C         -4.51955        0.60147        0.51266
C         -4.17023        1.95546        0.57138
C          2.82135       -1.03471        0.01313
C          3.11554        0.29713       -0.02447
C          3.71490       -1.96596        0.61546
C          4.26218        0.87613        0.56900
H         -2.56132        3.37250        0.39620
H         -5.54380        0.29088        0.68121
H         -4.92934        2.69814        0.78489
C         -3.98770       -1.71495        0.19607
N         -4.40728       -2.79943        0.18084
Li        -2.57299       -3.54909       -0.16243
Li         1.46432        3.63420        0.01897
