19
212470_b3lyp_2_Li.log	Energy: -423459.0131992
C         -0.47120        2.37655        0.00006
C         -1.80497        1.94881        0.00004
C         -2.18782        0.59534       -0.00010
O         -3.42684        0.17233       -0.00008
C         -1.10143       -0.33195       -0.00007
N         -1.39995       -1.67105       -0.00006
C         -0.41019       -2.54317       -0.00003
N          0.90696       -2.25431        0.00001
C          1.21054       -0.95779       -0.00000
C          0.28345        0.10172       -0.00004
C          0.62183        1.49933       -0.00004
O          1.86688        1.90268       -0.00010
H         -0.25165        3.43892        0.00014
H         -2.60056        2.68666        0.00011
H         -0.66428       -3.59830       -0.00003
C          2.63350       -0.68811        0.00012
N          3.77615       -0.49906        0.00041
Li        -3.39296       -1.57803       -0.00004
Li         3.51687        1.52446       -0.00030
