19
212470_b3lyp_0_Li.log	Energy: -423453.5894655
C         -1.17836        1.47802       -0.00002
C         -1.75345        0.17623        0.00008
C         -0.97510       -1.00240        0.00007
O         -1.44661       -2.20942        0.00023
C          0.44985       -0.77615       -0.00003
N          1.26029       -1.88345       -0.00003
C          2.56728       -1.69158       -0.00016
N          3.20333       -0.50300       -0.00018
C          2.42863        0.57274       -0.00019
C          1.02242        0.52929       -0.00013
C          0.18985        1.70115       -0.00015
O          0.72491        2.90889       -0.00014
H         -1.84332        2.33417        0.00001
H          3.20035       -2.57431       -0.00001
H          2.92738        1.53708       -0.00027
C         -3.17465        0.06147        0.00023
N         -4.33119        0.01071        0.00033
Li        -0.09135       -3.33422        0.00031
Li         1.12583        4.48248       -0.00010
