23
223813_b3lyp_2_Li.log	Energy: -404046.7023010
C          1.26479       -1.88078        0.01974
C          0.05351       -2.74503       -0.13281
C         -1.17509       -2.28415       -0.34660
C         -1.47640       -0.80705       -0.48552
C         -0.29039        0.12267       -0.23646
C          0.99856       -0.39722       -0.04215
C          2.09860        0.47613        0.10171
O          3.33034       -0.00142        0.28497
C          1.85061        1.85805        0.03999
C          0.57140        2.36660       -0.14149
C         -0.54461        1.51838       -0.27273
O         -1.77570        1.98990       -0.40858
H          1.76507       -2.12522        0.96787
H          2.00142       -2.15733       -0.74895
H         -1.85239       -0.62042       -1.50568
H          2.69556        2.53267        0.14408
H          0.40183        3.43769       -0.17893
H          0.20344       -3.82046       -0.07333
H         -2.01308       -2.96495       -0.45924
C         -2.62019       -0.44437        0.36620
N         -3.54311       -0.13964        0.99851
Li         4.86399       -0.43165        0.50709
Li        -3.27132        1.79437        0.37100
