23
223813_b3lyp_3_Li.log	Energy: -404057.3883467
C         -0.91317       -2.19106       -0.00021
C         -2.41184       -2.21405        0.00018
C         -3.16402       -1.11580        0.00021
C         -2.60050        0.27571       -0.00001
C         -1.09127        0.34878       -0.00012
C         -0.31416       -0.80399       -0.00009
C          1.10872       -0.72423       -0.00003
O          1.86800       -1.78847       -0.00011
C          1.67144        0.59087        0.00003
C          0.87874        1.75916       -0.00004
C         -0.50450        1.65859       -0.00010
O         -1.28374        2.73483       -0.00000
H         -0.52807       -2.75042        0.86330
H         -0.52858       -2.75002       -0.86423
H         -2.98456        0.83269       -0.86716
H          1.34316        2.73837        0.00011
H         -2.88786       -3.19163        0.00040
H         -4.24789       -1.20418        0.00044
H         -2.98435        0.83284        0.86713
C          3.07708        0.56115        0.00009
N          4.21073        0.27789        0.00013
Li         3.62514       -1.68618        0.00015
Li        -2.20851        4.05469       -0.00000
