23
223813_b3lyp_0_Li.log	Energy: -404039.7799460
C          1.43682        0.72275        0.00016
C          2.18002       -0.59149       -0.00008
C          1.56982       -1.78522       -0.00020
C          0.08618       -1.95004       -0.00013
C         -0.70183       -0.66248       -0.00002
C         -0.06672        0.58659        0.00011
C         -0.82020        1.78442        0.00024
O         -0.21072        2.96834       -0.00007
C         -2.21936        1.67694        0.00015
C         -2.84942        0.43704        0.00003
C         -2.11274       -0.75749       -0.00009
O         -2.71534       -1.94689        0.00022
H          1.75732        1.31335        0.86920
H          1.75734        1.31369       -0.86864
H          2.17386       -2.68829       -0.00037
H         -0.20108       -2.56546       -0.86610
H         -0.20098       -2.56555        0.86582
H         -2.80548        2.59097        0.00020
H         -3.93352        0.37302        0.00001
C          3.60949       -0.51720       -0.00016
N          4.76227       -0.41189       -0.00023
Li         0.52147        4.40142       -0.00050
Li        -3.57058       -3.30910        0.00059
