25
23162507_b3lyp_2_Li.log	Energy: -404807.3648917
C         -3.77015       -0.64339       -0.04105
C         -2.34565       -0.15007       -0.02303
C         -2.06218        1.21893       -0.02467
C         -0.75090        1.73491       -0.01143
O         -0.50463        3.04335       -0.03184
C          0.28041        0.78570        0.02280
C          0.01363       -0.58544        0.02498
C         -1.29081       -1.09636       -0.00706
O         -1.52939       -2.40697       -0.02228
C          1.29469       -1.38353        0.02909
C          2.34732       -0.32427        0.47702
C          1.76588        1.04959        0.02365
H         -3.98763       -1.27111        0.83135
H         -3.97019       -1.25852       -0.92667
H         -4.47599        0.19068       -0.04254
H          1.53425       -1.76804       -0.97072
H          2.38475       -0.32892        1.57133
H          2.06896        1.85605        0.69691
H          2.13194        1.31233       -0.97737
H         -2.88321        1.93131       -0.03902
H          1.27444       -2.24227        0.70537
C          3.70004       -0.58713       -0.00290
N          4.76928       -0.79525       -0.38673
Li        -0.22646        4.62520       -0.09446
Li        -1.86816       -3.97836       -0.07655
