21
24973987_b3lyp_1_Li.log	Energy: -629275.7997153
C         -0.12541        3.61066        0.00002
C         -0.38934        2.12690       -0.00011
C         -1.70211        1.62980       -0.00003
C         -2.02918        0.26358        0.00002
O         -3.27388       -0.19582        0.00016
C         -0.92422       -0.59830       -0.00003
C          0.41039       -0.13825       -0.00012
C          0.71957        1.24978       -0.00013
O          1.96433        1.67927       -0.00012
C          1.33185       -1.25620       -0.00010
C          0.72209       -2.48662       -0.00002
S         -1.00367       -2.36147       -0.00006
H          0.46454        3.90706       -0.87364
H          0.45735        3.90836        0.87813
H         -1.05919        4.17812       -0.00404
H          1.20339       -3.45271        0.00003
H         -2.52915        2.33485       -0.00009
C          2.73490       -1.07947        0.00002
N          3.87968       -0.87380        0.00022
Li        -4.79345       -0.73602        0.00024
Li         3.57648        1.14455        0.00030
