23
265508_b3lyp_2_Li.log	Energy: -438062.5145143
C          4.36724       -0.74671        0.00040
C          2.86244       -0.68989        0.00022
C          2.17200        0.50680       -0.00001
C          0.76058        0.52531       -0.00020
C          0.10546       -0.73771       -0.00035
C          0.91002       -1.89758        0.00010
N          2.23021       -1.89500        0.00040
C         -1.33561       -0.83692       -0.00067
O         -1.95843       -1.97376       -0.00127
C         -2.02752        0.40640       -0.00015
C         -1.36545        1.67126        0.00005
C          0.00950        1.76497       -0.00013
O          0.64685        2.92496       -0.00018
H          4.72575       -1.29056        0.87935
H          4.81067        0.25128        0.00020
H          4.72594       -1.29098       -0.87821
H         -1.95560        2.58059        0.00028
H          2.70629        1.44842        0.00002
H          0.41626       -2.86436        0.00042
C         -3.41998        0.22510        0.00053
N         -4.51545       -0.18312        0.00105
Li        -3.73041       -2.06537        0.00054
Li         1.33967        4.38429       -0.00031
