23
265508_b3lyp_1_Li.log	Energy: -438056.5719933
C         -0.50563        3.84629        0.00004
C         -0.25853        2.36051        0.00009
C         -1.28094        1.43137        0.00016
C         -1.02320        0.04403        0.00016
C          0.35520       -0.37815        0.00012
C          1.30720        0.67875        0.00002
N          1.04208        1.97915       -0.00000
C          0.71049       -1.77655        0.00007
O          1.96128       -2.16668       -0.00006
C         -0.35922       -2.67374        0.00002
C         -1.70091       -2.25873        0.00003
C         -2.08013       -0.91957        0.00020
O         -3.35061       -0.53738        0.00019
H         -0.05001        4.31098        0.87938
H         -1.57357        4.07379        0.00036
H         -0.05058        4.31083       -0.87967
H         -0.12326       -3.73254       -0.00003
H         -2.48693       -3.00829       -0.00000
H         -2.31348        1.75871        0.00023
C          2.72374        0.40110       -0.00036
N          3.87162        0.22737       -0.00076
Li         3.60317       -1.76186       -0.00002
Li        -4.94041       -0.25772        0.00021
