31
2764161_b3lyp_1_Li.log	Energy: -582318.0691757
C          4.19135        1.29432       -0.24201
C          4.25132       -0.11339       -0.21400
C          3.08607       -0.85512       -0.10128
C          1.78441       -0.23788       -0.00948
C          1.75025        1.21175       -0.04130
C          2.97190        1.92306       -0.15769
C          0.52262        1.92123        0.04029
O          0.49389        3.24086        0.00397
C         -0.67113        1.16263        0.15959
C         -0.63441       -0.27361        0.18890
C          0.59188       -0.99855        0.10413
O          0.59888       -2.30881        0.13151
C         -1.86121       -0.98448        0.30345
C         -3.06872       -0.34033        0.39266
C         -3.10335        1.08290        0.36537
C         -1.94248        1.79905        0.25148
C         -4.35760       -1.12975        0.55569
C         -5.35495       -0.85296       -0.48190
N         -6.14691       -0.62945       -1.29028
H          5.10604        1.86841       -0.33020
H          2.91529        3.00430       -0.17818
H         -1.80389       -2.06648        0.31900
H         -4.05701        1.59774        0.42523
H         -1.97476        2.88127        0.22929
H         -4.14434       -2.20179        0.54468
H         -4.82379       -0.91024        1.52418
H          5.20560       -0.62240       -0.28062
C          3.24423       -2.26944       -0.08212
N          3.44881       -3.41591       -0.07413
Li         0.28907        4.84643       -0.06965
Li         1.48437       -3.75521        0.07730
