31
2764161_b3lyp_0_Li.log	Energy: -582303.6664761
C          4.01455        0.99256       -0.19196
C          3.99172       -0.43759       -0.13612
C          2.78628       -1.10036       -0.02445
C          1.55363       -0.40745        0.03859
C          1.57419        1.03703       -0.01682
C          2.83891        1.68633       -0.13321
C          0.37334        1.78490        0.04064
O          0.38481        3.10360       -0.01868
C         -0.84836        1.06766        0.16356
C         -0.86992       -0.37185        0.21989
C          0.33139       -1.12620        0.15166
O          0.31631       -2.44316        0.18899
C         -2.12865       -1.02635        0.34421
C         -3.30861       -0.33202        0.41302
C         -3.28401        1.09074        0.35337
C         -2.09335        1.75547        0.23328
C         -4.63263       -1.05993        0.57734
C         -5.54284       -0.89078       -0.55947
N         -6.26414       -0.75782       -1.44981
H          4.96426        1.50590       -0.28000
H          2.77237       -2.18120        0.01849
H          2.84848        2.76817       -0.17379
H         -2.12747       -2.10937        0.38591
H         -4.21592        1.64547        0.39822
H         -2.07765        2.83716        0.19009
H         -4.45960       -2.13083        0.71380
H         -5.15677       -0.70822        1.47400
C          5.20954       -1.17966       -0.19525
N          6.19764       -1.78168       -0.24342
Li         0.39503        4.71881       -0.12851
Li         0.44423       -4.06186        0.15975
