31
2764161_b3lyp_4_Li.log	Energy: -582305.9473507
C          4.88580        0.11870       -0.00010
C          4.64023       -1.27883       -0.00005
C          3.35159       -1.74986       -0.00002
C          2.23654       -0.86678       -0.00003
C          2.48328        0.55304       -0.00008
C          3.83465        1.00029       -0.00011
C          1.40789        1.48957       -0.00009
O          1.63045        2.78739       -0.00010
C          0.08732        0.96936       -0.00004
C         -0.15207       -0.45608        0.00000
C          0.90896       -1.38814        0.00001
O          0.67753       -2.68595        0.00005
C         -1.49994       -0.90540        0.00004
C         -2.57782       -0.07028        0.00005
C         -2.33541        1.35131        0.00001
C         -1.03655        1.82708       -0.00004
C         -4.00877       -0.59066        0.00010
C         -4.06862       -2.05053        0.00017
N         -4.05365       -3.20422        0.00022
H          5.90654        0.48629       -0.00012
H         -0.86614        2.89579       -0.00007
H         -4.55883       -0.22390        0.87469
H         -4.55886       -0.22398       -0.87451
H          5.47488       -1.97182       -0.00004
H          3.14725       -2.81311        0.00002
H          4.01588        2.06802       -0.00014
H         -1.66626       -1.97345        0.00007
C         -3.42599        2.26830        0.00002
N         -4.32817        2.99604       -0.00004
Li         1.93174        4.38144       -0.00011
Li        -0.28915       -4.02298        0.00013
