27
2818090_b3lyp_1_Li.log	Energy: -405586.4423942
C          3.56636        0.42571        0.74451
C          2.69977        0.34156       -0.52548
C          1.27275       -0.06044       -0.24822
C          0.24727        0.91111       -0.11091
C         -1.12743        0.60897        0.17422
O         -2.01940        1.55844        0.28864
C         -1.44470       -0.77145        0.32377
C         -0.43608       -1.71132        0.18931
C          0.92125       -1.40500       -0.09168
O          1.81722       -2.38272       -0.19870
C         -2.87310       -1.17119        0.60771
C         -3.77229       -1.13971       -0.64037
H          3.18072        1.18300        1.43251
H          4.60075        0.68932        0.49972
H          3.56915       -0.53166        1.27174
H          3.14079       -0.38989       -1.21011
H         -0.68038       -2.76438        0.30860
H         -2.88461       -2.17700        1.04117
H         -3.28892       -0.48929        1.35580
H         -3.40561       -1.83141       -1.40475
H         -4.79990       -1.42366       -0.39062
H         -3.79074       -0.13579       -1.06954
H          2.72292        1.30858       -1.03955
C          0.44855        2.29954       -0.23665
N          0.36591        3.46390       -0.28984
Li        -1.62253        3.26250        0.11525
Li         2.84846       -3.61500       -0.31620
