33
346879_b3lyp_2_Li.log	Energy: -549085.7698694
C          4.56508        1.53542       -0.00007
C          3.23600        0.82605       -0.00001
C          2.04651        1.50487        0.00004
C          0.77128        0.86381        0.00012
C          0.73566       -0.58003        0.00014
C          1.96768       -1.27216        0.00007
C          3.18184       -0.61431        0.00003
C         -0.49381       -1.29381        0.00021
O         -0.51395       -2.61217        0.00011
C         -1.69573       -0.53633        0.00010
C         -1.65846        0.90297        0.00008
C         -0.42624        1.61496        0.00017
O         -0.40622        2.93752        0.00002
C         -2.90268        1.59585       -0.00004
C         -4.10092        0.93238       -0.00013
C         -4.15147       -0.49320       -0.00010
C         -2.96524       -1.18446        0.00000
C         -5.48705       -1.19485       -0.00016
H          4.42462        2.61824       -0.00001
H          5.16303        1.26967       -0.87819
H          5.16316        1.26959        0.87794
H         -2.87979        2.67870       -0.00006
H         -5.03047        1.49481       -0.00022
H         -2.97287       -2.26844        0.00002
H         -6.08054       -0.92440        0.88046
H         -6.08072       -0.92392       -0.88051
H         -5.36561       -2.28057       -0.00046
H          2.05749        2.58854        0.00003
H          1.94980       -2.35408        0.00009
C          4.38429       -1.38355        0.00005
N          5.35867       -2.01069       -0.00038
Li        -0.46913       -4.23101       -0.00001
Li        -0.37684        4.55172       -0.00017
