20
388306_b3lyp_2_Li.log	Energy: -413400.2221182
C         -2.36908       -2.11170        0.00012
C         -0.98882       -2.05616        0.00015
C         -0.33690       -0.81283        0.00003
C         -1.13709        0.36993       -0.00011
C         -0.56477        1.70886       -0.00022
O         -1.35732        2.75091       -0.00036
C          0.82164        1.77333       -0.00017
C          1.62552        0.59634       -0.00004
C          1.10458       -0.72461        0.00004
O          1.86119       -1.78239        0.00046
N         -2.50687        0.28985       -0.00013
C         -3.08459       -0.90505       -0.00003
H         -2.90033       -3.05533        0.00019
H         -4.17142       -0.91797       -0.00006
H         -0.38020       -2.95288        0.00026
H          1.29471        2.74769       -0.00026
C          3.03422        0.58809       -0.00002
N          4.16948        0.31596        0.00007
Li        -3.01107        2.19712       -0.00034
Li         3.63098       -1.65301        0.00067
