24
4055_b3lyp_1_Li.log	Energy: -427988.9552056
C          3.40990       -1.72022        0.00004
C          2.03510       -1.10330        0.00000
C          0.89001       -1.92287       -0.00000
C         -0.41880       -1.43801       -0.00004
O         -1.46208       -2.23750       -0.00003
C         -0.57000       -0.01021       -0.00001
C         -1.85351        0.63020        0.00001
C         -1.99005        2.01498        0.00002
C         -0.84614        2.82757       -0.00001
C          0.40531        2.24647       -0.00002
C          0.58954        0.84531       -0.00002
C          1.91040        0.28846       -0.00003
O          2.97662        1.07934       -0.00010
H          3.35278       -2.81075        0.00006
H          3.98640       -1.41170        0.88064
H          3.98642       -1.41173       -0.88056
H         -2.97966        2.45632        0.00003
H         -0.95377        3.90609       -0.00001
H          1.29438        2.86524       -0.00003
H          1.01192       -3.00186        0.00001
C         -3.06258       -0.12354        0.00005
N         -4.09403       -0.66457        0.00024
Li        -3.13705       -2.43209       -0.00007
Li         4.41980        1.80435       -0.00018
