33
616789_b3lyp_1_Li.log	Energy: -549092.1202200
C         -3.02097       -2.94268        0.81196
C         -2.78015       -2.15562       -0.49448
C         -2.22108       -0.75883       -0.27267
C         -0.81666       -0.46529       -0.12642
C         -0.41918        0.94519       -0.04260
C         -1.46376        1.94137       -0.01922
C         -2.79863        1.60318       -0.11316
C         -3.16209        0.25405       -0.25841
C          0.93846        1.34020        0.01563
O          1.29072        2.60209        0.08918
C          1.93046        0.31615       -0.00861
C          3.31055        0.65789        0.02417
C          4.28403       -0.30907        0.01381
C          3.92182       -1.68024       -0.02714
C          2.59833       -2.04151       -0.05621
C          1.56226       -1.06488       -0.05234
C          0.19492       -1.47300       -0.08547
O         -0.08350       -2.76047       -0.06070
H         -2.14509       -2.91218        1.47189
H         -3.31978       -3.98477        0.61444
H         -3.83689       -2.50193        1.38831
H         -3.74186       -2.05830       -1.00683
H         -3.55800        2.37573       -0.09534
H         -4.21099        0.00739       -0.38336
H          3.56551        1.70939        0.05726
H          5.33201       -0.02896        0.03709
H          4.69492       -2.44156       -0.03664
H          2.30840       -3.08361       -0.08972
H         -2.12239       -2.70162       -1.17335
C         -1.18935        3.33367        0.09592
N         -1.07847        4.49049        0.18903
Li         0.90466        4.24385        0.19192
Li        -1.00068       -4.09367        0.22030
