33
616789_b3lyp_0_Li.log	Energy: -549086.0170636
C          2.99357       -0.79377       -1.82279
C          3.14364       -0.17473       -0.41238
C          2.02127        0.80884       -0.05006
C          0.61657        0.46442        0.02098
C         -0.33046        1.57057        0.08621
C          0.16012        2.90323        0.19007
C          1.49703        3.18127        0.19926
C          2.42570        2.12043        0.05268
C         -1.73176        1.35734        0.06869
O         -2.57762        2.37430        0.12813
C         -2.20820        0.02396       -0.01177
C         -3.60321       -0.26150       -0.06327
C         -4.07345       -1.54819       -0.12406
C         -3.16137       -2.63627       -0.13659
C         -1.81122       -2.39842       -0.08119
C         -1.28532       -1.07664       -0.01905
C          0.12565       -0.87182        0.04640
O          0.92738       -1.91425        0.14926
H          2.10060       -1.41380       -1.86896
H          3.86854       -1.39901       -2.07558
H          2.91033        0.01954       -2.54581
H          4.06941        0.41317       -0.41271
H         -0.56994        3.69892        0.26400
H          1.85498        4.20115        0.28729
H          3.48325        2.35824       -0.01098
H         -4.29326        0.57344       -0.05530
H         -5.14095       -1.73875       -0.16599
H         -3.53538       -3.65306       -0.19508
H         -1.10534       -3.21919       -0.10125
C          3.40084       -1.21494        0.58496
N          3.69547       -2.03356        1.35166
Li        -3.67937        3.55107        0.19011
Li         1.88441       -2.88730        1.15359
