25
Li_10419488_b3lyp_prop_2.log	Energy: -441168.1472736
C          4.27469       -0.36130        0.00052
C          2.81154        0.00946        0.00019
C          2.43479        1.37143        0.00020
C          1.09652        1.81276       -0.00006
O          0.65053        3.05931        0.00006
C          0.20454        0.73629       -0.00040
C          0.49954       -0.62469       -0.00036
C          1.85743       -1.03245       -0.00007
O          2.20288       -2.31336       -0.00006
C         -0.77275       -1.29170       -0.00031
C         -1.75625       -0.34482       -0.00032
O         -1.18261        0.93929       -0.00038
H          4.53814       -0.96024       -0.87997
H          4.53766       -0.96053        0.88096
H          4.90621        0.52972        0.00083
H          3.21009        2.13171        0.00047
H         -0.95378       -2.35508       -0.00032
C         -3.15866       -0.41966       -0.00043
C         -4.36650       -0.48689       -0.00028
C         -5.81854       -0.58718        0.00070
H         -6.18547       -1.07794       -0.90638
H         -6.17691       -1.16010        0.86170
H         -6.27602        0.40550        0.04933
Li        -1.09567        2.89215        0.00004
Li         2.82754       -3.79963        0.00006
