22
Li_11122_b3lyp_prop_0.log	Energy: -346123.7976593
C          0.64083       -2.21847       -0.00034
C          0.79949       -0.72118       -0.00019
C         -0.32027        0.15301       -0.00008
C         -0.18305        1.57952        0.00002
O         -1.23827        2.36534       -0.00003
C          1.13598        2.08013        0.00010
C          2.22755        1.22783        0.00005
C          2.09406       -0.17778       -0.00004
O          3.16981       -0.96584       -0.00002
H          1.12500       -2.66341       -0.87759
H         -0.40846       -2.51806       -0.00282
H          1.12063       -2.66335        0.87938
H          1.26846        3.15670        0.00016
H          3.23452        1.63563        0.00013
C         -1.65301       -0.35105       -0.00002
C         -2.82020       -0.70599        0.00005
C         -4.14895       -1.32613        0.00026
H         -4.04783       -2.41561        0.00080
H         -4.73491       -1.05701        0.88549
H         -4.73489       -1.05783       -0.88527
Li        -2.77944        1.61578       -0.00034
Li         4.47626       -1.89993        0.00076
