31
Li_10281_b3lyp_prop_0.log	Energy: -420153.9087113
C          1.83694        2.49090        0.11593
C          0.72740        1.47688        0.03238
C          0.98088        0.08170       -0.03976
C         -0.06439       -0.89088       -0.11526
O          0.21735       -2.17845       -0.17316
C         -1.40379       -0.41474       -0.12691
C         -1.63139        0.95322       -0.05716
C         -0.60260        1.91744        0.02492
O         -0.89675        3.21665        0.09024
C         -2.52405       -1.44170       -0.18585
C         -2.80658       -2.02329        1.21404
C         -3.81821       -0.92653       -0.83051
H          2.82143        2.02009        0.10590
H          1.75484        3.08873        1.03144
H          1.78801        3.19649       -0.72181
H         -2.64779        1.33414       -0.06762
H         -2.14494       -2.26618       -0.79849
H         -3.18119       -1.24532        1.88809
H         -3.55797       -2.81975        1.16400
H         -1.89428       -2.44062        1.64476
H         -3.63156       -0.50591       -1.82281
H         -4.53740       -1.74473       -0.93883
H         -4.29926       -0.15267       -0.22323
C          2.31257       -0.42577       -0.03831
C          3.42373       -0.92940       -0.04137
C          4.83032       -1.34402       -0.03486
H          5.47162       -0.47393        0.13496
H          5.05065       -2.06391        0.76054
H          5.13688       -1.79069       -0.98671
Li         1.87051       -2.63314       -0.17246
Li        -1.29012        4.77175        0.16893
