26
Li_134204124_b3lyp_prop_1.log	Energy: -394708.3014509
C         -1.31053        2.64159       -0.06585
C         -0.80199        1.21896       -0.06928
C         -1.68328        0.10671       -0.05382
C         -1.19016       -1.24843       -0.07365
O         -1.98969       -2.28847       -0.17498
C          0.20115       -1.41797       -0.04078
C          1.07031       -0.32044       -0.01469
C          0.59721        1.02973       -0.04042
O          1.45637        2.03348       -0.02986
C         -3.11751        0.38002       -0.05970
C         -4.14116       -0.30597        0.50887
H         -1.97232        2.84154        0.78344
H         -1.87085        2.88226       -0.97833
H         -0.46049        3.32009       -0.00850
H         -3.40580        1.29540       -0.57338
H         -5.15156        0.08490        0.46933
H         -3.95708       -1.12215        1.20835
H          0.59063       -2.42918       -0.05008
C          2.48280       -0.51535        0.02733
C          3.69563       -0.62062        0.06312
C          5.12434       -0.94468        0.11153
H          5.25553       -2.02962        0.16084
H          5.65766       -0.59227       -0.77714
H          5.61567       -0.51777        0.99203
Li        -3.66054       -2.22946       -0.46119
Li         3.12864        1.65792        0.01330
