33
Li_12635763_b3lyp_prop_0.log	Energy: -562113.3697103
C         -1.69294        4.57038        0.00217
C         -1.06795        3.52600        0.00071
C         -0.12375        2.44916       -0.00153
C         -0.45079        1.04552       -0.00061
C          0.65172        0.07703       -0.00257
C          1.99930        0.58465       -0.00323
C          2.24829        1.95096       -0.00480
C          1.19635        2.87606       -0.00431
C          0.38200       -1.31740       -0.00424
O          1.34142       -2.21133       -0.00873
C         -0.98000       -1.74045       -0.00141
C         -1.29518       -3.12821       -0.00177
C         -2.59672       -3.56270        0.00104
C         -3.66048       -2.62295        0.00422
C         -3.39028       -1.27766        0.00443
C         -2.05219       -0.79375        0.00165
C         -1.79864        0.60919        0.00145
O         -2.80026        1.45703        0.00295
H         -2.12865        5.54145        0.00465
H          3.27101        2.30678       -0.00573
H          1.41583        3.93654       -0.00532
H         -0.47097       -3.82997       -0.00422
H         -2.81686       -4.62525        0.00088
H         -4.68768       -2.97276        0.00646
H         -4.18831       -0.54629        0.00676
C          3.19868       -0.20769        0.00010
C          4.32878       -0.65946        0.00443
C          5.73736       -1.06458        0.01187
H          6.37990       -0.18187        0.08077
H          5.97868       -1.70745        0.86476
H          6.01591       -1.59861       -0.90248
Li         2.98027       -2.43382       -0.01528
Li        -3.28004        3.04291       -0.00005
