24
Li_141333781_b3lyp_prop_3.log	Energy: -417248.2953231
C         -3.18917       -0.13670       -0.08421
C         -3.12588       -1.65328        0.19692
O         -1.77141       -2.07436       -0.07988
C         -0.98962       -0.94136       -0.03413
C         -1.72683        0.23004       -0.01460
C         -1.12279        1.50619        0.00157
O         -1.85636        2.61665        0.00085
C          0.27407        1.52285        0.01405
C          1.02314        0.31977       -0.00377
C          0.42165       -0.97825       -0.03243
O          1.13055       -2.08120       -0.05494
H         -3.60592        0.08299       -1.07597
H         -3.33602       -1.86386        1.25257
H         -3.80254        0.39031        0.65188
H         -3.79293       -2.25293       -0.42375
H          0.79097        2.47577        0.03578
C          2.44613        0.35185        0.01018
C          3.66437        0.29752        0.01950
C          5.12325        0.44033        0.04010
H          5.48323        0.94873       -0.86031
H          5.44616        1.02593        0.90683
H          5.63975       -0.52376        0.09437
Li        -2.71525        3.97459       -0.01868
Li         2.83699       -1.88313       -0.04423
