26
Li_15321799_b3lyp_prop_1.log	Energy: -394711.0810010
C         -0.44347       -2.17847       -0.26029
C         -0.98104       -0.78323       -0.71364
C          0.14496        0.16190       -0.29964
C          1.32014       -0.56297       -0.07964
C          1.09546       -2.04150       -0.28259
C          2.52930        0.07667        0.23147
O          3.65936       -0.60613        0.42835
C          2.47749        1.48280        0.31342
C          1.30562        2.20205        0.08518
C          0.08529        1.56880       -0.23990
O         -1.03319        2.24277       -0.46961
H         -0.82509       -2.98752       -0.88806
H         -1.07682       -0.77137       -1.81115
H          1.57248       -2.65652        0.48685
H          1.50755       -2.37154       -1.24686
H          3.39438        2.01218        0.55851
H          1.30979        3.28566        0.15105
H         -0.77980       -2.36197        0.76366
C         -2.31824       -0.51444       -0.17043
C         -3.43560       -0.35129        0.27149
C         -4.77834       -0.30819        0.85861
H         -5.52714        0.04231        0.14207
H         -5.07890       -1.30900        1.18195
H         -4.81713        0.34383        1.73636
Li         5.06274       -1.34716        0.65871
Li        -2.62881        1.73652       -0.33490
