32
Li_12344381_b3lyp_prop_5.log	Energy: -572222.0023832
C         -4.50652       -1.69989       -0.00003
C         -4.81302       -0.31449        0.00001
C         -3.80065        0.61222        0.00003
C         -2.43424        0.22039        0.00002
C         -2.12109       -1.18240       -0.00001
C         -3.19878       -2.11356       -0.00003
C         -0.77045       -1.62790        0.00001
O         -0.47683       -2.91409        0.00003
C          0.25221       -0.64195       -0.00003
C          1.60801       -1.03923       -0.00005
C          2.66410       -0.14232       -0.00015
C          2.36401        1.24888       -0.00014
C          1.05254        1.68296       -0.00006
C         -0.06979        0.77395       -0.00004
C         -1.41160        1.22158        0.00002
O         -1.72450        2.49416        0.00006
C          0.86544        3.09497        0.00001
N          0.78393        4.25654        0.00009
H          3.17354        1.96789       -0.00014
H         -5.30975       -2.42939       -0.00006
H         -5.84878        0.00809        0.00002
H         -4.01402        1.67353        0.00006
H         -2.95917       -3.16979       -0.00006
H          1.81808       -2.10064       -0.00001
C          4.02101       -0.58184       -0.00020
C          5.17590       -0.93735       -0.00010
C          6.56888       -1.36490        0.00031
H          6.82315       -1.89567        0.92345
H          6.77986       -2.03561       -0.83873
H          7.24144       -0.50620       -0.08448
Li        -0.20718       -4.51030        0.00024
Li        -1.21181        4.10919        0.00014
