24
Li_15269886_b3lyp_prop_1.log	Energy: -417289.4963831
C         -3.49701        1.50001       -0.00015
C         -2.05253        1.08233       -0.00006
C         -1.03331        1.99594        0.00003
C          0.35651        1.64212        0.00011
O          1.27647        2.57306        0.00014
C          0.66309        0.26886        0.00009
C         -0.38274       -0.74291        0.00003
C         -1.76292       -0.33752       -0.00005
O         -2.74978       -1.16601       -0.00010
C         -0.00284       -2.11254        0.00014
O         -0.74533       -3.13073        0.00016
H         -3.59022        2.58783       -0.00027
H         -4.01876        1.09996        0.87444
H         -4.01870        1.09976       -0.87468
H          1.08138       -2.29972        0.00022
H         -1.25372        3.05939        0.00003
C          2.04184       -0.07058        0.00006
C          3.24524       -0.27396       -0.00002
C          4.64299       -0.71580       -0.00026
H          4.68156       -1.80919       -0.00000
H          5.18828       -0.37441       -0.88631
H          5.18873       -0.37402        0.88537
Li         2.91522        2.02564        0.00012
Li        -2.52169       -2.89759       -0.00010
