25
Li_102160488_b3lyp_prop_0.log	Energy: -441205.4186798
C          0.99652       -0.67401       -0.80522
C          0.28081       -2.02992       -0.51552
C         -1.15913       -1.65683       -0.17382
O         -2.05343       -2.52651       -0.01068
C         -1.26344       -0.24518       -0.05800
C         -0.01443        0.37284       -0.34429
C          0.17680        1.74422       -0.27622
O          1.33276        2.33733       -0.52426
C         -0.99236        2.49039        0.08895
C         -2.21872        1.91914        0.36475
C         -2.42794        0.50821        0.30898
O         -3.56964       -0.04321        0.56910
H          1.14056       -0.57241       -1.89054
H          0.31700       -2.72187       -1.35982
H          0.72102       -2.54418        0.34408
H         -0.88027        3.56962        0.14161
H         -3.06612        2.54010        0.63520
C          2.32577       -0.58259       -0.18684
C          3.42833       -0.53719        0.31404
C          4.73720       -0.63385        0.96641
H          4.91668       -1.66228        1.29212
H          5.55124       -0.35774        0.29005
H          4.79714        0.00562        1.85179
Li         2.86951        1.64895       -0.34281
Li        -3.66661       -1.79865        0.45041
