24
Li_10154120_b3lyp_prop_0.log	Energy: -393934.2138347
C         -2.88344        3.10349        0.00064
C         -2.18775        1.81363        0.00015
C         -1.46590        0.83045       -0.00016
C         -0.71409       -0.37284       -0.00018
C          0.72158       -0.36606       -0.00033
C          1.46034       -1.57873       -0.00006
O          2.77292       -1.58549        0.00053
C          0.70301       -2.78422       -0.00018
C         -0.67356       -2.79080       -0.00016
C         -1.44196       -1.59242       -0.00008
O         -2.75419       -1.61045       -0.00004
H         -2.60934        3.69656        0.87904
H         -3.97274        2.99353        0.01478
H         -2.63092        3.68670       -0.89076
H          1.26046       -3.71504       -0.00019
H         -1.22221       -3.72684       -0.00017
C          1.46054        0.84571       -0.00064
C          2.16582        1.84069       -0.00154
C          2.84684        3.13832        0.00060
H          3.33228        3.35024        0.95910
H          3.60605        3.21337       -0.78495
H          2.12059        3.93632       -0.17966
Li         3.54985       -0.04959        0.00359
Li        -3.54404       -0.08060       -0.00011
