28
Li_102182508_b3lyp_prop_0.log	Energy: -442525.2239249
C          2.39596       -0.47924        0.20908
C          1.24387       -0.65629       -0.50107
C          0.08022       -0.88235        0.43112
C          0.71977       -0.67898        1.78588
C          2.05189       -0.49331        1.65420
C         -1.23761       -0.18163        0.13559
C         -2.39314       -0.93601       -0.10748
C         -3.63249       -0.33614       -0.37846
O         -4.72776       -1.06206       -0.60836
C         -3.66077        1.07220       -0.39586
C         -2.52016        1.82955       -0.15713
C         -1.26828        1.23701        0.11676
O         -0.18591        1.95787        0.34260
H          1.15936       -0.68702       -1.57829
H         -0.12692       -1.96675        0.37637
H          0.16320       -0.73496        2.71151
H          2.78147       -0.39721        2.44876
H         -2.34598       -2.02226       -0.08949
H         -4.60652        1.56510       -0.60318
H         -2.56737        2.91373       -0.17599
C          3.71308       -0.29551       -0.29519
C          4.84080       -0.12984       -0.69551
C          6.19555        0.05257       -1.19769
H          6.23978        0.86929       -1.92437
H          6.88889        0.28734       -0.38510
H          6.55471       -0.85448       -1.69334
Li        -6.08558       -1.86693       -0.89096
Li         1.41779        1.57642        0.69552
