26
Li_15321799_b3lyp_prop_3.log	Energy: -394717.7743037
C          3.27993       -1.54526        0.27678
C          3.18950       -0.03755       -0.07178
C          1.70533        0.24336       -0.03204
C          0.98268       -0.94371       -0.04792
C          1.90111       -2.14138       -0.10419
C         -0.42769       -0.96518       -0.04132
O         -1.12970       -2.07906       -0.06639
C         -1.05750        0.31973       -0.00327
C         -0.31083        1.52219        0.00987
C          1.08492        1.51532       -0.01186
O          1.80424        2.63678       -0.01256
H          3.43295       -1.65429        1.35525
H          3.75675        0.59169        0.62167
H          1.91412       -2.56773       -1.11663
H         -0.83049        2.47431        0.03601
H          4.11391       -2.04682       -0.22149
H          3.58993        0.16652       -1.07536
H          1.58333       -2.94637        0.56363
C         -2.47960        0.34374        0.01674
C         -3.69771        0.27661        0.03045
C         -5.15772        0.40653        0.05887
H         -5.51178        1.02446       -0.77260
H         -5.66770       -0.55926       -0.02029
H         -5.49499        0.87354        0.99001
Li        -2.83973       -1.88340       -0.04317
Li         2.72074        3.95530       -0.02704
