21
Li_13839673_b3lyp_prop_2.log	Energy: -426540.7529927
C         -1.54017        2.14099       -0.00002
C         -2.71292        1.31051       -0.00001
C         -2.67911       -0.07772        0.00001
O         -3.67157       -0.94188        0.00003
C         -1.33222       -0.58843        0.00000
N         -1.02304       -1.88074       -0.00002
O          0.36021       -1.96265       -0.00001
C          0.86825       -0.69174       -0.00001
C         -0.15747        0.23205       -0.00000
C         -0.23599        1.66274       -0.00000
O          0.87338        2.38167        0.00001
H         -1.67666        3.21752       -0.00005
H         -3.68453        1.79370       -0.00004
C          2.26919       -0.54375        0.00000
C          3.47869       -0.43076       -0.00001
C          4.93803       -0.40211        0.00001
H          5.33831        0.09751        0.88775
H          5.32001       -1.42683       -0.00010
H          5.33835        0.09769       -0.88763
Li        -2.92544       -2.54790        0.00001
Li         2.47608        1.84713        0.00005
