24
Li_10154120_b3lyp_prop_2.log	Energy: -393924.3793651
C         -4.82688       -1.61327        0.00099
C         -3.47549       -1.04521       -0.00318
C         -2.42726       -0.42289       -0.00127
C         -1.16099        0.22881       -0.00028
C         -1.07306        1.63516        0.00009
C          0.16774        2.27878        0.00022
O          0.27110        3.60584        0.00050
C          1.31514        1.46022       -0.00007
C          1.25947        0.06109       -0.00008
C         -0.00268       -0.61020        0.00033
O         -0.11445       -1.91262        0.00162
H         -5.19997       -1.76863        1.01865
H         -4.88013       -2.57339       -0.52262
H         -5.52075       -0.93607       -0.50608
H         -1.97828        2.23284        0.00011
H          2.28649        1.94344       -0.00007
C          2.46131       -0.70617       -0.00028
C          3.48685       -1.34486       -0.00055
C          4.71085       -2.13530       -0.00104
H          5.32627       -1.92293       -0.88198
H          5.32214       -1.93049        0.88455
H          4.48478       -3.20639       -0.00614
Li         0.46962        5.20026        0.00092
Li        -1.70422       -2.56727        0.00822
