32
Li_13182761_b3lyp_prop_6.log	Energy: -572213.7037549
C          4.21879       -1.81279       -0.00033
C          4.70465       -0.48018        0.00091
C          3.82314        0.57086        0.00137
C          2.41509        0.36056        0.00065
C          1.92464       -0.98750       -0.00057
C          2.86693       -2.05185       -0.00105
C          0.52299       -1.28602       -0.00136
O          0.12786       -2.53467       -0.00284
C         -0.38424       -0.19993       -0.00056
C          0.11804        1.16857        0.00023
C          1.50984        1.45659        0.00097
O          1.94722        2.69997        0.00174
C         -0.79506        2.24308        0.00003
C         -2.16108        2.04543       -0.00080
C         -2.67422        0.71832       -0.00106
C         -1.82340       -0.37098       -0.00075
C         -3.05292        3.15813       -0.00118
N         -3.77742        4.06179       -0.00147
H          4.91932       -2.64115       -0.00068
H          5.77395       -0.29626        0.00147
H          4.18631        1.59112        0.00231
H          2.47803       -3.06195       -0.00199
H         -0.39666        3.24847        0.00044
H         -3.74550        0.56514       -0.00126
C         -2.51369       -1.63237        0.00025
C         -3.28310       -2.57448        0.00142
C         -4.31768       -3.61284        0.00452
H         -5.30805       -3.14845        0.00776
H         -4.26313       -4.25324       -0.88183
H         -4.25734       -4.25351        0.89029
Li        -1.24651       -3.47189       -0.00715
Li         2.53392        4.21165        0.00265
