28
Li_12587549_b3lyp_prop_0.log	Energy: -465841.1260744
C          1.57630       -0.23559        0.40652
C          0.75707        0.91613       -0.23773
C         -0.73214        0.70421       -0.10844
C         -1.26262       -0.59169       -0.01981
C         -0.37379       -1.81295       -0.10857
C          1.11523       -1.55358       -0.22518
O          1.86457       -2.33406       -0.76858
C         -2.65254       -0.80430        0.12743
O         -3.14580       -2.03881        0.21046
C         -3.48168        0.32694        0.17791
C         -2.95894        1.61233        0.08066
C         -1.58105        1.83616       -0.07100
O         -1.08786        3.06934       -0.17933
H          1.26660       -0.28663        1.46070
H          1.03449        1.85495        0.24573
H          1.06015        1.01366       -1.28892
H         -0.66019       -2.45630       -0.94705
H         -0.50918       -2.43521        0.78971
H         -4.55100        0.17651        0.29233
H         -3.61704        2.47530        0.11809
C          3.01595       -0.01837        0.33772
C          4.20213        0.18000        0.27670
C          5.64308        0.38649        0.19370
H          5.88680        1.23997       -0.44649
H          6.07543        0.57642        1.18095
H          6.13920       -0.49480       -0.22387
Li        -3.73840       -3.53292        0.26739
Li        -0.51981        4.56282       -0.35434
