24
Li_11040862_b3lyp_prop_1.log	Energy: -417261.0641180
C          4.06152       -0.40417        0.00143
C          2.94799        0.65454       -0.00036
O          3.31441        1.82185       -0.00184
C          1.51429        0.27359       -0.00027
C          0.60202        1.34653       -0.00034
C         -0.78600        1.17435       -0.00007
O         -1.64342        2.17054        0.00086
C         -1.24632       -0.18709       -0.00046
C         -0.35616       -1.26510       -0.00027
C          1.03799       -1.08172       -0.00012
O          1.82880       -2.13557       -0.00010
H          3.99634       -1.02125       -0.90546
H          3.99410       -1.02078        0.90845
H          5.01937        0.11559        0.00237
H         -0.72879       -2.28300       -0.00026
H          0.99493        2.35523       -0.00031
C         -2.65752       -0.39814       -0.00095
C         -3.87010       -0.50548       -0.00168
C         -5.29959       -0.82656        0.00065
H         -5.43973       -1.89698       -0.17449
H         -5.77111       -0.58663        0.95895
H         -5.84522       -0.29602       -0.78614
Li        -3.31560        1.79823        0.00497
Li         3.34665       -2.76662        0.00173
