22
Li_12838779_b3lyp_prop_0.log	Energy: -439776.3878514
C         -1.29446        0.00017       -1.24721
O         -0.43971        1.15743       -1.08911
C          0.68058        0.68004       -0.34053
C          0.68039       -0.68000       -0.34051
O         -0.43990       -1.15717       -1.08901
C          1.63486       -1.49008        0.27054
O          1.53769       -2.81117        0.21909
C          2.63652       -0.70208        0.90276
C          2.63671        0.70139        0.90273
C          1.63532        1.48982        0.27056
O          1.53890        2.81097        0.21924
H         -1.66730        0.00014       -2.27178
H          3.43049       -1.23176        1.41871
H          3.43076        1.23093        1.41876
C         -2.38258        0.00035       -0.27384
C         -3.31480        0.00027        0.48850
C         -4.41753       -0.00021        1.43830
H         -5.30495       -0.47459        1.01043
H         -4.14418       -0.54261        2.34739
H         -4.68402        1.02121        1.72341
Li         0.06511       -3.06716       -0.69275
Li         0.06602        3.06655       -0.69269
