23
Li_130029656_b3lyp_prop_0.log	Energy: -404033.8924733
C         -3.36415       -0.34663        0.00018
C         -1.86093       -0.35949       -0.00002
C         -1.10407        0.83614       -0.00009
C          0.33422        0.89553       -0.00030
O          0.95612        2.03410        0.00006
C          0.99883       -0.37117       -0.00014
C          0.24190       -1.54510       -0.00007
C         -1.16920       -1.57881       -0.00009
O         -1.81856       -2.73839        0.00009
C         -1.66198        2.13041       -0.00002
N         -1.88277        3.27720       -0.00001
H         -3.76576        0.66904       -0.00002
H         -3.75887       -0.86852        0.87891
H         -3.75908       -0.86897       -0.87819
H          0.76297       -2.49671        0.00001
C          2.42281       -0.41993       -0.00008
C          3.62970       -0.46913       -0.00004
C          5.08607       -0.50719        0.00003
H          5.47363       -1.02580        0.88330
H          5.47373       -1.02492       -0.88370
H          5.50264        0.50488        0.00056
Li         0.14146        3.59012        0.00037
Li        -2.53133       -4.18442        0.00023
