22
Li_11122_b3lyp_prop_2.log	Energy: -346124.8928014
C          1.83170        2.73642        0.00020
C          1.35802        1.30690       -0.00003
C          2.24720        0.24107        0.00013
C          1.84137       -1.11674        0.00006
O          2.74301       -2.09765        0.00023
C          0.47127       -1.36965       -0.00021
C         -0.45793       -0.30409       -0.00046
C         -0.04287        1.06061       -0.00028
O         -0.92026        2.04386       -0.00019
H          1.45460        3.27613       -0.87456
H          2.92341        2.78990       -0.00003
H          1.45502        3.27573        0.87539
H          3.31595        0.44098        0.00037
H          0.11874       -2.39545       -0.00026
C         -1.85842       -0.55608       -0.00070
C         -3.07092       -0.68871       -0.00116
C         -4.49148       -1.05103        0.00134
H         -4.71891       -1.73977       -0.81852
H         -4.77416       -1.54141        0.93855
H         -5.14724       -0.18244       -0.11978
Li         3.85123       -3.25843        0.00040
Li        -2.57690        1.57655        0.00133
