23
Li_152386883_b3lyp_prop_2.log	Energy: -404034.4695322
C          0.02607        2.64981        0.10924
C          1.33312        2.23733       -0.05040
C          1.69450        0.87277       -0.21240
O          2.95891        0.50947       -0.34892
C          0.64602       -0.06125       -0.21222
C         -0.70686        0.35370       -0.04767
C         -1.05049        1.72959        0.12142
O         -2.29829        2.10695        0.27652
C          0.95507       -1.52684       -0.47181
C          2.15572       -2.00307        0.20987
N          3.12046       -2.38770        0.72353
H          0.12296       -2.16267       -0.15663
H          1.11420       -1.71729       -1.54297
H         -0.21344        3.70055        0.23238
H          2.13968        2.96354       -0.05623
C         -1.78440       -0.57488       -0.04972
C         -2.75260       -1.31736       -0.04210
C         -3.80311       -2.33964       -0.06074
H         -4.60623       -2.09894       -0.76502
H         -3.38207       -3.29935       -0.37484
H         -4.25323       -2.49025        0.92600
Li         4.06596       -0.63613        0.22586
Li        -3.50875        0.89140        0.27110
