23
Li_11309532_b3lyp_prop_1.log	Energy: -370027.4284668
C          4.34096       -0.29680       -0.00003
C          3.18365       -0.97863       -0.00036
C          1.79406       -0.51653       -0.00031
C          0.80854       -1.51684       -0.00065
C         -0.57229       -1.25819       -0.00045
O         -1.48147       -2.20965        0.00032
C         -0.94413        0.12333       -0.00060
C          0.02896        1.13931       -0.00001
C          1.39887        0.86205        0.00019
O          2.27769        1.85382        0.00074
H          4.36951        0.78200        0.00034
H          5.28668       -0.82779       -0.00016
H          3.26775       -2.06471       -0.00073
H         -0.27954        2.17937        0.00028
H          1.11241       -2.55902       -0.00083
C         -2.33399        0.42969       -0.00128
C         -3.53952        0.61075       -0.00262
C         -4.94663        1.02067        0.00178
H         -5.03630        2.05012       -0.35744
H         -5.56564        0.39914       -0.65352
H         -5.38116        0.98383        1.00622
Li        -3.12235       -1.69903        0.00622
Li         3.30422        3.09597        0.00156
