25
Li_102160488_b3lyp_prop_2.log	Energy: -441211.0934908
C         -1.59195        2.21365       -0.00002
C         -3.02569        1.63519        0.00016
C         -2.85882        0.12274       -0.00004
O         -3.82792       -0.67261       -0.00014
C         -1.45975       -0.19798        0.00001
C         -0.70126        0.99505        0.00005
C          0.69217        0.97943        0.00008
O          1.44231        2.06356        0.00009
C          1.28050       -0.33736        0.00006
C          0.53575       -1.52576        0.00004
C         -0.87803       -1.51327        0.00002
O         -1.59032       -2.59999       -0.00001
H         -1.39684        2.84229        0.87430
H         -3.61090        1.92928        0.87684
H          1.04013       -2.48498        0.00002
H         -1.39699        2.84205       -0.87455
H         -3.61132        1.92957       -0.87612
C          2.70906       -0.39271        0.00001
C          3.92559       -0.38028        0.00002
C          5.37914       -0.56285        0.00008
H          5.61763       -1.63007        0.00059
H          5.84837       -0.12373       -0.88579
H          5.84838       -0.12289        0.88552
Li         3.14516        1.86051       -0.00090
Li        -3.33560       -2.43523       -0.00014
