24
Li_129814774_b3lyp_prop_0.log	Energy: -461921.6869034
C          1.61571       -0.19837       -0.07153
C          0.78476       -1.31753       -0.25984
C         -0.60651       -1.19276       -0.33446
O         -1.41704       -2.23000       -0.48578
C         -1.12314        0.12948       -0.22708
C         -0.31716        1.24429       -0.03343
C          1.08697        1.12593        0.05387
O          1.87279        2.15952        0.23290
C         -2.64158        0.26727       -0.42217
C         -3.39510       -0.69360        0.40676
N         -3.98724       -1.47627        1.01862
C         -3.17420        1.61707       -0.20626
N         -3.60926        2.67343       -0.06127
H          1.21659       -2.30794       -0.34692
H         -0.74001        2.23905        0.04765
H         -2.87926       -0.01469       -1.45921
C          3.03234       -0.33898        0.00491
C          4.24693       -0.38416        0.07850
C          5.68874       -0.63813        0.14242
H          6.03043       -1.15763       -0.75794
H          6.27505        0.28228        0.22682
H          5.93766       -1.26259        1.00591
Li        -2.73231       -2.96314        0.30096
Li         3.56646        1.85721        0.30411
