24
Li_15269886_b3lyp_prop_0.log	Energy: -417286.6195139
C          0.42330        2.44597       -0.00006
C         -0.01577        1.00786       -0.00003
C          0.88365       -0.06281       -0.00000
C          0.47627       -1.45446       -0.00007
O          1.38556       -2.40618       -0.00016
C         -0.89018       -1.68568       -0.00004
C         -1.84162       -0.62944       -0.00004
C         -1.42235        0.75169       -0.00014
O         -2.25060        1.75006       -0.00019
C         -3.22024       -1.01280        0.00012
O         -4.23317       -0.27442        0.00026
H          1.50983        2.54101        0.00022
H          0.02320        2.96963        0.87373
H          0.02370        2.96945       -0.87420
H         -1.23553       -2.71468       -0.00001
H         -3.39631       -2.10122        0.00013
C          2.29625        0.16789        0.00004
C          3.50533        0.30247        0.00020
C          4.92608        0.66025        0.00013
H          5.03456        1.74853        0.00222
H          5.44572        0.27891        0.88464
H          5.44464        0.28236       -0.88649
Li         3.04444       -2.00570       -0.00012
Li        -3.97394        1.51389        0.00007
