22
Li_10986586_b3lyp_prop_1.log	Energy: -619169.1353213
C         -0.52145        1.63544        0.00016
C         -1.18555        0.37544        0.00013
C         -0.47793       -0.86015        0.00017
O         -1.08181       -2.02364        0.00041
C          0.92923       -0.72449       -0.00001
C          1.59940        0.51309       -0.00006
C          0.86280        1.74049        0.00007
O          1.49520        2.90801        0.00016
C          3.02459        0.34126       -0.00023
C          3.40510       -0.96483       -0.00031
S          2.05348       -2.07069       -0.00014
H          3.72202        1.16816       -0.00032
H          4.41092       -1.35908       -0.00048
H         -1.11319        2.54431        0.00024
C         -2.60464        0.29731       -0.00006
C         -3.81528        0.14599       -0.00056
C         -5.28101        0.16765       -0.00004
H         -5.66975        0.62115        0.91754
H         -5.66358        0.74551       -0.84748
H         -5.71589       -0.83456       -0.07377
Li        -2.80795       -1.95184        0.00173
Li         2.22629        4.34096        0.00041
