24
Li_130029688_b3lyp_prop_0.log	Energy: -461949.4423651
C          0.97263       -2.76348        0.00001
C          0.34097       -1.40165        0.00002
C          1.08949       -0.22836        0.00001
C          0.46326        1.08617        0.00005
O          1.15851        2.17354        0.00008
C         -0.95656        1.11389        0.00002
C         -1.72587       -0.09133        0.00002
C         -1.10161       -1.36614        0.00003
O         -1.79942       -2.46183        0.00005
C         -3.12481       -0.18499       -0.00004
N         -4.24064       -0.53013       -0.00007
C         -1.45790        2.42299       -0.00002
N         -1.61242        3.58080       -0.00005
H          2.05935       -2.70088        0.00060
H          0.64312       -3.33314       -0.87420
H          0.64211       -3.33361        0.87350
C          2.51387       -0.25353        0.00000
C          3.72117       -0.25281       -0.00002
C          5.17676       -0.23769       -0.00006
H          5.57821       -0.74399        0.88343
H          5.57816       -0.74405       -0.88354
H          5.55638        0.78828       -0.00012
Li         0.42937        3.78829        0.00004
Li        -3.57173       -2.46814       -0.00001
