24
Li_10154120_b3lyp_prop_1.log	Energy: -393933.9179226
C         -5.45132        0.63053        0.00054
C         -4.01012        0.36551       -0.00100
C         -2.79351        0.30954       -0.00032
C         -1.37469        0.16443       -0.00002
C         -0.54080        1.29459        0.00062
C          0.85703        1.17536        0.00046
O          1.66578        2.21439        0.00048
C          1.37470       -0.16436       -0.00005
C          0.54080       -1.29454       -0.00069
C         -0.85701       -1.17531       -0.00051
O         -1.66580       -2.21430       -0.00045
H         -5.92215        0.33963        0.94510
H         -5.97052        0.10929       -0.81014
H         -5.63014        1.70072       -0.13720
H          0.96907       -2.29020       -0.00115
H         -0.96902        2.29027        0.00109
C          2.79352       -0.30952        0.00025
C          4.01013       -0.36555        0.00096
C          5.45129       -0.63072       -0.00044
H          5.92259       -0.33802       -0.94422
H          5.97014       -0.11102        0.81146
H          5.63002       -1.70118        0.13530
Li         3.35203        1.89667       -0.00296
Li        -3.35205       -1.89669        0.00320
