26
Li_11958_b3lyp_prop_1.log	Energy: -418015.5897986
C         -2.59437        2.67734        0.16849
C         -1.81913        1.39074        0.05921
C         -2.45428        0.16449       -0.05094
C         -1.77067       -1.07793       -0.15611
O         -2.39539       -2.23670       -0.30446
C         -0.37362       -0.99460       -0.11553
C          0.32563        0.23438       -0.04218
C         -0.39573        1.46319        0.05695
O          0.23841        2.61324        0.12844
O          0.32913       -2.22977       -0.22717
C          1.00329       -2.63428        0.98112
H         -3.67027        2.48884        0.15677
H         -2.34813        3.35607       -0.65426
H         -2.34217        3.21132        1.09026
H          1.77038       -1.90758        1.25153
H          0.28614       -2.73137        1.80213
H          1.47773       -3.59659        0.77571
H         -3.53933        0.11852       -0.06323
C          1.74059        0.31398       -0.10946
C          2.94970        0.46685       -0.16587
C          4.41077        0.46448       -0.28561
H          4.90212        0.95187        0.56291
H          4.77687       -0.56597       -0.32021
H          4.75219        0.95795       -1.20175
Li        -1.14606       -3.33420       -0.79235
Li         1.95414        2.57786        0.05412
