26
Li_11029986_b3lyp_prop_2.log	Energy: -394702.4687837
C         -3.97813       -2.07429        0.91560
C         -2.73904       -1.98214        0.43505
C         -2.33223       -1.17260       -0.76912
C         -1.24689       -0.16040       -0.45810
C         -1.54219        1.18656       -0.29749
C         -0.56530        2.16876       -0.00452
O         -0.90459        3.44781        0.13975
C          0.75352        1.73337        0.12228
C          1.08160        0.36876       -0.03631
C          0.09213       -0.61705       -0.32744
O          0.41375       -1.88811       -0.47128
H         -4.81003       -1.55129        0.45134
H         -4.20687       -2.67451        1.78997
H         -1.92780       -2.51627        0.92365
H         -1.94850       -1.86156       -1.53112
H         -3.20853       -0.66469       -1.18389
H         -2.57171        1.52066       -0.39902
H          1.53242        2.45468        0.34462
C          2.42716       -0.07876        0.08814
C          3.55366       -0.53659        0.17916
C          4.96743       -0.89282        0.33241
H          5.59227       -0.31479       -0.35582
H          5.31627       -0.69210        1.35051
H          5.15935       -1.95121        0.12796
Li        -1.36078        4.97688        0.32428
Li         2.08397       -2.27128       -0.30556
