27
Li_130412007_b3lyp_prop_1.log	Energy: -418619.2785431
C         -0.87150       -1.94784       -1.37220
C         -1.12458       -0.46352       -0.99281
C          0.13483        0.25995       -0.51528
C          1.22660       -0.48354       -0.01384
C          1.10180       -1.93075        0.11727
C          0.11160       -2.62955       -0.45873
C          2.40573        0.18106        0.40574
O          3.46173       -0.48566        0.86380
C          2.42444        1.58729        0.31021
C          1.33070        2.30896       -0.14403
C          0.13140        1.66992       -0.53616
O         -0.95461        2.35807       -0.87015
H         -1.82168       -2.48800       -1.41273
H         -1.45818        0.05245       -1.90238
H          1.84918       -2.43410        0.72081
H          0.03742       -3.70489       -0.33056
H          3.32837        2.10458        0.61885
H          1.36309        3.39319       -0.18485
H         -0.47113       -1.95215       -2.39571
C         -2.22923       -0.31625       -0.02326
C         -3.14658       -0.13715        0.74920
C         -4.21795       -0.07987        1.74692
H         -5.15940        0.27586        1.31818
H         -4.40011       -1.07741        2.15671
H         -3.95587        0.57511        2.58305
Li         4.81299       -1.20020        1.36163
Li        -2.49039        1.92148       -0.28116
