28
Li_12587549_b3lyp_prop_4.log	Energy: -465858.3395150
C         -2.78406       -1.77147        0.56984
C         -1.42108       -1.96701       -0.11461
C         -0.57383       -0.71682       -0.06476
C         -1.16067        0.54821       -0.02389
C         -2.66331        0.71509       -0.05569
C         -3.49019       -0.55788        0.01385
O         -4.65016       -0.57494       -0.34937
C         -0.37396        1.73555        0.02569
O         -0.96279        2.92894        0.05728
C          1.01130        1.59956        0.03639
C          1.61658        0.32636       -0.00536
C          0.83912       -0.86664       -0.06187
O          1.41345       -2.05139       -0.11009
H         -2.61818       -1.59325        1.64122
H         -0.87143       -2.78528        0.35436
H         -2.98233        1.26896       -0.94573
H         -3.43513       -2.64150        0.46495
H         -1.57904       -2.27602       -1.15718
H         -2.98034        1.33983        0.79199
H          1.62679        2.49169        0.07513
C          3.03288        0.18459        0.00324
C          4.23638       -0.01078        0.00712
C          5.70135       -0.04799        0.02201
H          6.11855       -0.32856       -0.95079
H          6.09398        0.94235        0.27077
H          6.09427       -0.74494        0.76955
Li        -1.70089        4.36032        0.04314
Li         3.13619       -2.06660       -0.11267
