28
Li_102182508_b3lyp_prop_7.log	Energy: -442524.3390738
C          3.78368       -1.11620        0.73656
C          2.85549       -0.23028        1.17405
C          2.23007        0.48803       -0.00090
C          2.85422       -0.23212       -1.17541
C          3.78267       -1.11755       -0.73747
C          0.73197        0.74470       -0.00028
C          0.24530        2.05430        0.00007
C         -1.13231        2.33575        0.00054
O         -1.58704        3.58883        0.00083
C         -2.00200        1.23672        0.00066
C         -1.54071       -0.09031        0.00034
C         -0.14235       -0.37435       -0.00011
O          0.32226       -1.59996       -0.00044
H          4.44565       -1.71032        1.35528
H          2.61511        0.00335        2.20221
H          2.71502        1.48163       -0.00202
H          2.61285       -0.00003       -2.20369
H          4.44388       -1.71274       -1.35599
H          0.93696        2.89314       -0.00012
H         -3.07127        1.42011        0.00099
C         -2.47504       -1.16803        0.00040
C         -3.28076       -2.06897        0.00036
C         -4.23693       -3.16885        0.00024
H         -4.88452       -3.13999        0.88349
H         -4.88502       -3.13937       -0.88262
H         -3.72370       -4.13605       -0.00023
Li        -2.25016        5.05118        0.00025
Li         1.87465       -2.26040        0.00149
