27
Li_14642912_b3lyp_prop_0.log	Energy: -418611.5848277
C         -3.97990        0.83702        0.33311
C         -2.98818        0.11071       -0.23791
C         -1.53876        0.21613       -0.07679
C         -0.75628       -0.97612       -0.12165
C          0.66427       -0.90907       -0.10163
O          1.42401       -1.98198       -0.14107
C          1.25665        0.38750       -0.00669
C          0.48418        1.55257        0.03930
C         -0.91834        1.51375       -0.00986
O         -1.60692        2.63326       -0.06339
C         -1.31118       -2.33207       -0.16521
C         -2.45931       -2.79496        0.35360
H         -3.77848        1.52067        1.15826
H         -5.01885        0.59194        0.14127
H         -3.30812       -0.68527       -0.90807
H          0.95924        2.52528        0.08989
H         -0.64405       -3.04846       -0.63594
H         -2.72530       -3.84124        0.24805
H         -3.14172       -2.17793        0.92588
C          2.68062        0.45081        0.04132
C          3.89764        0.43950        0.07968
C          5.34931        0.63271        0.13229
H          5.62363        1.25463        0.98973
H          5.89711       -0.30998        0.22857
H          5.71169        1.13022       -0.77267
Li         3.12705       -1.76865       -0.06250
Li        -3.25910        2.78830       -0.39967
