25
Li_14080455_b3lyp_prop_2.log	Energy: -464468.9279665
C          2.86614       -1.78324       -0.38016
C          3.51597       -0.62225        0.35136
O          2.82863        0.59600        0.02501
C          1.41314        0.47771        0.00822
C          0.79904       -0.76544        0.01758
O          1.52499       -1.94298        0.04135
C         -0.61820       -0.86305        0.02239
O         -1.23732       -2.01837        0.04701
C         -1.31866        0.37843       -0.00169
C         -0.66542        1.63401       -0.03459
C          0.72567        1.72583       -0.03211
O          1.41915        2.85171       -0.06357
H          3.38284       -2.71747       -0.15192
H          3.46521       -0.78243        1.43376
H         -1.24401        2.54942       -0.06113
H          2.90658       -1.60688       -1.46393
H          4.55702       -0.48973        0.04870
C         -2.73983        0.29887        0.00101
C         -3.95038        0.15521        0.00583
C         -5.41589        0.19015        0.00560
H         -5.79700        0.66663       -0.90321
H         -5.86067       -0.80904        0.05729
H         -5.79321        0.75519        0.86376
Li        -2.95850       -1.94729        0.04894
Li         3.10192        2.47595       -0.04975
