27
Li_130412007_b3lyp_prop_4.log	Energy: -418628.1716494
C          3.67792       -0.78880        0.44882
C          3.01216        0.44259       -0.18190
C          1.50284        0.42312       -0.07286
C          0.85011       -0.82045       -0.10442
C          1.64319       -2.04764       -0.17814
C          2.96314       -2.05886        0.06145
C         -0.57002       -0.90956       -0.07531
O         -1.20703       -2.05914       -0.10961
C         -1.28660        0.32368       -0.00262
C         -0.61788        1.56281        0.02563
C          0.77614        1.63954       -0.02364
O          1.39874        2.81791       -0.03358
H          4.73330       -0.83059        0.15916
H          3.39875        1.36044        0.26792
H         -1.18940        2.48356        0.07476
H          3.66745       -0.69164        1.54615
H          3.28098        0.48488       -1.24935
H          1.10343       -2.96113       -0.39898
H          3.52183       -2.98979        0.03732
C         -2.70748        0.25467        0.03830
C         -3.91896        0.11919        0.07131
C         -5.38401        0.15644        0.11674
H         -5.82989        0.02285       -0.87448
H         -5.80229       -0.60977        0.77820
H         -5.71964        1.12519        0.49947
Li        -2.92557       -1.98779       -0.06048
Li         2.14505        4.23963       -0.08441
