22
Li_15699186_b3lyp_prop_3.log	Energy: -416490.3976570
C          3.14081       -0.11667       -0.00008
C          2.82921        1.25777       -0.00002
C          1.50379        1.73616        0.00006
O          1.08800        2.99280        0.00006
C          0.58308        0.68149        0.00002
C          0.83142       -0.69021       -0.00004
C          2.17880       -1.14053       -0.00007
O          2.48809       -2.43020       -0.00015
C         -0.46203       -1.31439       -0.00006
C         -1.41327       -0.33539       -0.00001
O         -0.79605        0.92859        0.00003
H          4.18525       -0.41418       -0.00013
H          3.63245        1.98744       -0.00003
H         -0.67835       -2.37118       -0.00010
C         -2.81736       -0.36120       -0.00000
C         -4.02684       -0.38449        0.00001
C         -5.48169       -0.43038        0.00003
H         -5.86396       -0.94937       -0.88465
H         -5.86402       -0.94791        0.88553
H         -5.90130        0.57998       -0.00083
Li        -0.66168        2.87758        0.00008
Li         3.01306       -3.95339        0.00049
