26
Li_130029677_b3lyp_prop_0.log	Energy: -428720.8460580
C         -0.68324       -2.64751        0.00005
C         -0.12954       -1.24920        0.00005
C         -0.93766       -0.09684        0.00002
C         -0.42113        1.24708       -0.00002
O         -1.24040        2.27811       -0.00000
C          0.97336        1.41109       -0.00001
C          1.77732        0.25362        0.00001
C          1.27549       -1.09493        0.00004
O          2.09350       -2.11791       -0.00002
C          3.19001        0.26943        0.00001
N          4.33178        0.02993       -0.00003
C          1.54816        2.79960        0.00000
H         -0.32798       -3.20218        0.87427
H         -0.32962       -3.20160       -0.87522
H         -1.77407       -2.65468        0.00102
H          2.64066        2.79070        0.00017
H          1.20511        3.36013       -0.87520
H          1.20482        3.36022        0.87504
C         -2.36325       -0.20915        0.00000
C         -3.57982       -0.24727        0.00001
C         -5.02450       -0.49330       -0.00006
H         -5.51400       -0.07525       -0.88527
H         -5.21576       -1.57019       -0.00107
H         -5.51377       -0.07693        0.88607
Li        -2.93047        2.00447        0.00008
Li         3.83919       -1.96347       -0.00009
