28
Li_12587549_b3lyp_prop_2.log	Energy: -465847.0181203
C         -0.10000       -2.41288        0.44500
C          1.33015       -1.87732        0.24536
C          1.37628       -0.37794        0.05951
C          0.24892        0.35150       -0.35722
C         -1.05767       -0.34959       -0.74115
C         -0.97808       -1.89298       -0.65871
O         -1.56036       -2.59175       -1.45609
C          0.28500        1.76073       -0.52320
O         -0.79445        2.43576       -0.89009
C          1.51488        2.39724       -0.27221
C          2.63405        1.67982        0.13052
C          2.59969        0.28624        0.30378
O          3.68714       -0.39303        0.67497
H         -0.48975       -2.03698        1.39888
H          1.94638       -2.15107        1.10614
H         -1.29211       -0.12240       -1.78862
H          1.56402        3.47377       -0.39981
H          3.57217        2.19401        0.31917
H         -0.13594       -3.50371        0.45108
H          1.78313       -2.38440       -0.61795
C         -2.22110        0.06529        0.06199
C         -3.19776        0.36330        0.71430
C         -4.36743        0.58919        1.56644
H         -4.17469        1.35395        2.32443
H         -5.24094        0.89736        0.98464
H         -4.63278       -0.33407        2.08937
Li        -2.41539        2.24341       -0.49534
Li         5.09548       -1.07340        1.04730
