23
Li_129812261_b3lyp_prop_0.log	Energy: -417050.2127443
C         -4.20583       -0.56868       -0.00007
C         -2.99658       -0.41247       -0.00001
C         -1.58588       -0.37416        0.00001
C         -0.84866        0.85577        0.00001
C          0.57083        0.87619        0.00003
O          1.23142        1.99659        0.00001
C          1.23683       -0.40569        0.00003
C          0.50624       -1.58674        0.00002
C         -0.91326       -1.62618        0.00001
O         -1.57274       -2.75568        0.00001
C         -1.49017        2.11444        0.00000
C         -1.93858        3.24791        0.00000
H         -5.26967       -0.55129       -0.00018
H          1.02636       -2.53744        0.00002
H         -2.46916        4.17021       -0.00000
C          2.66068       -0.43771        0.00004
C          3.86746       -0.47714        0.00005
C          5.32311       -0.50945        0.00005
H          5.70893       -1.02873        0.88331
H          5.70894       -1.02879       -0.88317
H          5.73764        0.50322        0.00002
Li         0.35772        3.48916       -0.00051
Li        -3.30091       -2.69953        0.00013
