25
Li_14080455_b3lyp_prop_1.log	Energy: -464463.7163956
C          0.90494       -1.63177       -0.31212
C          1.47605       -0.43075        0.45756
O          0.78537        0.75857        0.04327
C         -0.63164        0.61700        0.02054
C         -1.23700       -0.62932       -0.00278
O         -0.46291       -1.82844        0.03686
C         -2.63781       -0.79777       -0.02354
O         -3.15781       -2.01738       -0.00920
C         -3.36965        0.40681       -0.05126
C         -2.75818        1.66248       -0.05473
C         -1.35846        1.82607       -0.02101
O         -0.71123        2.98192       -0.03495
H          1.44486       -2.54066       -0.04464
H          1.28006       -0.58619        1.52730
H         -4.45143        0.32913       -0.07077
H         -3.36372        2.56198       -0.08465
H          0.99722       -1.44616       -1.38788
C          2.90335       -0.25497        0.22459
C          4.08636       -0.13326        0.03374
C          5.51827        0.00827       -0.19494
H          6.00526        0.50783        0.64685
H          5.98716       -0.97130       -0.32246
H          5.71442        0.59250       -1.09810
Li        -1.86399       -3.15365        0.05990
Li         0.99114        2.66659       -0.02981
