25
Li_102160488_b3lyp_prop_1.log	Energy: -441197.1181214
C          0.42908       -1.46239        0.52691
C          1.43116       -0.31485        0.85691
C          0.68205        0.98088        0.46392
O          1.22087        2.11029        0.51114
C         -0.66003        0.65249        0.12095
C         -0.85596       -0.75398        0.17989
C         -2.09013       -1.32391       -0.08613
O         -2.30854       -2.63545       -0.05015
C         -3.13282       -0.40854       -0.41592
C         -2.96369        0.96254       -0.48403
C         -1.70596        1.57607       -0.22115
O         -1.52430        2.85698       -0.28136
H          0.31043       -2.14951        1.37034
H          1.56511       -0.24956        1.94549
H         -4.11091       -0.83310       -0.62752
H         -3.79565        1.60869       -0.74255
H          0.79421       -2.05688       -0.31670
C          2.74577       -0.44313        0.24036
C          3.82898       -0.55460       -0.27482
C          5.14036       -0.67562       -0.90095
H          5.90636       -0.94727       -0.16826
H          5.13852       -1.44243       -1.68156
H          5.44247        0.26885       -1.36349
Li        -2.57017       -4.22432       -0.03023
Li         0.08761        3.46997        0.06739
