28
Li_14289169_b3lyp_prop_0.log	Energy: -395478.3029394
C          0.09667       -2.91556        0.92955
C          0.04696       -2.12951       -0.39354
C         -0.35581       -0.68529       -0.21404
C          0.62211        0.33671       -0.08048
C          0.26684        1.71061        0.09907
O          1.18596        2.64455        0.21720
C         -1.11288        1.99980        0.13817
C         -2.08338        1.01520        0.01211
C         -1.71642       -0.34874       -0.16190
O         -2.66526       -1.28058       -0.27619
C         -3.54645        1.37101        0.05958
H          0.83583       -2.48570        1.61125
H          0.36360       -3.96479        0.75943
H         -0.87428       -2.88414        1.43070
H          1.02595       -2.18478       -0.87983
H         -0.67152       -2.61012       -1.06473
H         -1.40003        3.03802        0.27255
H         -4.05405        0.85494        0.88301
H         -3.68538        2.44604        0.19301
H         -4.05819        1.07042       -0.86215
C          2.01409        0.04048       -0.12169
C          3.22183       -0.13234       -0.14530
C          4.63029       -0.53653       -0.19734
H          5.15908       -0.09849       -1.05064
H          5.17680       -0.26474        0.71209
H          4.69883       -1.62370       -0.29982
Li         2.82308        2.13352        0.14174
Li        -3.88484       -2.32016       -0.40112
