21
Li_13839673_b3lyp_prop_0.log	Energy: -426548.9885387
C         -0.99543        0.28995        0.00002
C         -0.22785        1.52498       -0.00002
C          1.15275        1.55720       -0.00003
O          1.96018        2.59537       -0.00005
C          1.74560        0.24054       -0.00002
N          3.05857        0.03581        0.00001
O          3.22530       -1.35073        0.00004
C          2.01356       -1.93331        0.00004
C          1.02094       -0.99198        0.00001
C         -0.42344       -0.99797        0.00002
O         -1.10898       -2.10887        0.00002
H         -0.76967        2.46396       -0.00002
H          2.01383       -3.01128        0.00005
C         -2.41627        0.34872        0.00003
C         -3.63588        0.33022        0.00001
C         -5.09106        0.50599        0.00007
H         -5.32919        1.57359        0.00182
H         -5.56378        0.07115       -0.88667
H         -5.56407        0.06823        0.88521
Li         3.61182        1.94707        0.00003
Li        -2.83401       -1.86325       -0.00046
