27
Li_12913941_b3lyp_prop_1.log	Energy: -441912.2859223
C          0.89068        0.85600       -0.03776
C          1.63374       -0.42156        0.37408
O          1.15518       -1.53035       -0.39276
C         -0.19705       -1.85079       -0.06624
C         -1.12258       -0.65875       -0.03064
C         -0.60423        0.64122       -0.02621
C         -1.46707        1.76184       -0.01256
O         -0.97688        3.00079       -0.03240
C         -2.84929        1.51842        0.01940
C         -3.36080        0.22304        0.03043
C         -2.51400       -0.89495        0.00908
O         -2.98990       -2.14169        0.02275
H          1.23803        1.15778       -1.03381
H          1.42564       -0.61873        1.43922
H         -0.52132       -2.56066       -0.83098
H         -0.21962       -2.38363        0.90078
H         -3.52051        2.37206        0.03389
H         -4.43395        0.05731        0.05339
H          1.15698        1.66799        0.64698
C          3.08242       -0.31778        0.20026
C          4.27484       -0.20658        0.07279
C          5.71908       -0.09599       -0.09317
H          6.00005        0.87669       -0.50836
H          6.23975       -0.21592        0.86178
H          6.09123       -0.86761       -0.77386
Li        -0.36679        4.48396       -0.11173
Li        -3.59255       -3.63062        0.04288
