24
Li_141265078_b3lyp_prop_2.log	Energy: -393916.6274005
C          4.66174       -1.39393       -0.00299
C          3.47086       -1.57005       -0.00091
C          2.03176       -1.80942        0.00161
C          1.14492       -0.57489        0.00109
C          1.63641        0.72052        0.00084
C          0.79707        1.86231        0.00039
O          1.31803        3.08672        0.00018
C         -0.57956        1.64305        0.00009
C         -1.10192        0.33012        0.00031
C         -0.25519       -0.81583        0.00091
O         -0.74666       -2.03961        0.00119
H          5.71296       -1.24374       -0.00487
H          1.77275       -2.42819        0.86932
H          1.77004       -2.43063       -0.86350
H          2.70940        0.88256        0.00089
H         -1.25329        2.49296       -0.00036
C         -2.50736        0.10194       -0.00022
C         -3.69660       -0.16706       -0.00079
C         -5.15686       -0.29546       -0.00133
H         -5.52867       -0.82361        0.88294
H         -5.61406        0.69834        0.00081
H         -5.52833       -0.81970       -0.88806
Li         2.03875        4.52254       -0.00026
Li        -2.46661       -2.15340       -0.00043
