27
Li_12913941_b3lyp_prop_4.log	Energy: -441928.2301705
C          2.97087        0.52411       -0.00317
C          3.57087       -0.82518        0.38020
O          2.98497       -1.87502       -0.37515
C          1.60831       -2.05414       -0.04838
C          0.82016       -0.76487       -0.02306
C          1.46127        0.47077       -0.01405
C          0.71954        1.68800       -0.01826
O          1.35072        2.86066       -0.03601
C         -0.66993        1.60489       -0.00464
C         -1.32659        0.35461        0.00244
C         -0.59353       -0.86651       -0.00404
O         -1.20062       -2.03683        0.00455
H          3.34214        0.82364       -0.99242
H          3.42305       -1.01391        1.45589
H          1.19663       -2.73037       -0.79915
H          3.30675        1.29597        0.69935
H          4.64355       -0.85954        0.17486
H          1.52497       -2.56774        0.92370
H         -1.25108        2.52070       -0.00177
C         -2.74614        0.26480        0.01199
C         -3.95510        0.10421        0.01982
C         -5.42094        0.11566        0.03197
H         -5.81266        0.36268        1.02418
H         -5.80419        0.86014       -0.67282
H         -5.85110       -0.84838       -0.25878
Li         2.11316        4.27329       -0.11694
Li        -2.92356       -1.98387        0.02193
