28
Li_11228886_b3lyp_prop_2.log	Energy: -395476.0895378
C         -2.45062       -2.12221       -1.27076
C         -2.46495       -1.25153       -0.00009
C         -2.45081       -2.12231        1.27050
C         -1.35553       -0.20790       -0.00001
C         -1.68413        1.14331        0.00007
C         -0.73285        2.19185        0.00016
O         -1.12012        3.46599        0.00014
C          0.61083        1.82441        0.00009
C          0.98060        0.46157       -0.00004
C          0.01668       -0.59217       -0.00005
O          0.40671       -1.85355       -0.00011
H         -1.52512       -2.69764       -1.32630
H         -2.52416       -1.50184       -2.16897
H         -3.29718       -2.81801       -1.26945
H         -3.41021       -0.69423       -0.00013
H         -1.52536       -2.69781        1.32609
H         -2.52440       -1.50200        2.16876
H         -3.29741       -2.81805        1.26906
H         -2.73340        1.42919        0.00010
H          1.37535        2.59381        0.00011
C          2.35394        0.08636       -0.00009
C          3.50900       -0.30475       -0.00013
C          4.95023       -0.57359       -0.00020
H          5.43100       -0.13215       -0.87906
H          5.42804       -0.15227        0.89010
H          5.17877       -1.64438       -0.01210
Li        -1.62169        4.99158       -0.00024
Li         2.10069       -2.14571        0.00188
