29
Li_23162507_b3lyp_prop_0.log	Energy: -419395.1894232
C          1.06394        2.62725        0.03139
C          0.31077        1.32305        0.00240
C          0.98296        0.06882       -0.00662
C          0.28624       -1.18521       -0.04022
O          0.93365       -2.33171       -0.06270
C         -1.11841       -1.10147       -0.04618
C         -1.77603        0.12184       -0.03390
C         -1.09306        1.35634       -0.01880
O         -1.75964        2.51144       -0.02308
C         -3.27311       -0.08016       -0.07244
C         -3.44292       -1.58069        0.27897
C         -2.09714       -2.25005       -0.09981
H          0.78670        3.22171        0.90994
H          0.82397        3.23933       -0.84614
H          2.14411        2.47410        0.05241
H         -3.66275        0.14266       -1.07629
H         -3.80652        0.57906        0.62010
H         -3.60234       -1.67929        1.35755
H         -4.30211       -2.03834       -0.21882
H         -1.82340       -3.06860        0.57111
H         -2.13342       -2.67894       -1.11071
C          2.40440       -0.00849        0.01236
C          3.61482       -0.16430        0.02574
C          5.08086       -0.14064        0.05174
H          5.48402        0.35942       -0.83499
H          5.44935        0.39343        0.93366
H          5.51809       -1.14438        0.08052
Li         2.64895       -2.24996       -0.04454
Li        -2.62485        3.86475       -0.04210
