24
Li_22489347_b3lyp_prop_1.log	Energy: -393942.1082326
C         -0.72874       -1.22355        0.00013
C         -1.56116        0.05238        0.00011
C         -0.72901        1.12968        0.00003
C          0.65875        0.70498       -0.00001
C          0.68631       -0.70639        0.00006
C          1.88254       -1.42730        0.00005
O          1.91055       -2.75881       -0.00009
C          3.06406       -0.65247       -0.00019
C          3.04288        0.74240       -0.00026
C          1.83999        1.47627       -0.00009
O          1.82123        2.80450       -0.00024
H         -0.94958       -1.84408       -0.87853
H         -1.05587        2.16147        0.00001
H          4.01588       -1.17612       -0.00033
H          3.97779        1.29548       -0.00044
H         -0.94952       -1.84402        0.87885
C         -2.97401        0.05589        0.00017
C         -4.18461        0.01863        0.00023
C         -5.64144       -0.01048        0.00030
H         -6.05269        0.49012       -0.88298
H         -6.01554       -1.03920        0.00004
H         -6.05259        0.48963        0.88392
Li         1.90024       -4.36433       -0.00025
Li         1.79793        4.41130       -0.00012
