27
Li_265508_b3lyp_prop_1.log	Energy: -452625.8064200
C          0.39039        3.84440       -0.00031
C          0.34836        2.33778       -0.00013
C          1.48544        1.56132        0.00001
C          1.40783        0.15118        0.00003
C          0.09887       -0.45317       -0.00012
C         -1.00201        0.45780       -0.00014
N         -0.88904        1.78391       -0.00015
C         -0.03837       -1.89026       -0.00023
O         -1.21456       -2.47250       -0.00048
C          1.14520       -2.62929       -0.00008
C          2.41471       -2.03111        0.00011
C          2.59188       -0.65255        0.00017
O          3.79642       -0.09043        0.00032
H         -0.12306        4.24317       -0.88054
H          1.41779        4.21515        0.00055
H         -0.12468        4.24341        0.87886
H          1.05654       -3.71054       -0.00015
H          3.30075       -2.65961        0.00021
H          2.46571        2.02141        0.00010
C         -2.39912        0.06960        0.00002
C         -3.60916       -0.03622        0.00020
C         -5.07304        0.02278        0.00059
H         -5.50483       -0.45441       -0.88493
H         -5.50436       -0.45482        0.88613
H         -5.39792        1.06730        0.00093
Li        -2.83748       -2.12829       -0.00048
Li         5.30965        0.45879        0.00065
