35
Li_2764161_b3lyp_prop_5.log	Energy: -596879.1743101
C          5.15285        1.00586        0.23983
C          5.25834       -0.40399        0.10520
C          4.12633       -1.16583       -0.03246
C          2.82583       -0.58504       -0.04603
C          2.71920        0.84702        0.09062
C          3.91842        1.60283        0.23169
C          1.45178        1.49052        0.08731
O          1.35156        2.79953        0.22197
C          0.29696        0.67864       -0.06482
C          0.40682       -0.75365       -0.20476
C          1.66668       -1.39720       -0.18849
O          1.76496       -2.71156       -0.29659
C         -0.79610       -1.50043       -0.35859
C         -2.03564       -0.92113       -0.37388
C         -2.15075        0.50891       -0.23033
C         -0.99760        1.25534       -0.08439
C         -3.28034       -1.77315       -0.55383
C         -3.98373       -2.07145        0.69863
N         -4.53549       -2.33354        1.67742
H         -1.07893        2.32953        0.01681
H         -3.99166       -1.27838       -1.22248
H         -3.01090       -2.72756       -1.01478
H          6.05030        1.60587        0.34825
H          6.23621       -0.87418        0.11108
H          4.20138       -2.24127       -0.13721
H          3.82874        2.67749        0.33225
H         -0.70412       -2.57511       -0.46724
C         -3.43020        1.14023       -0.24732
C         -4.52638        1.65009       -0.25908
C         -5.84910        2.26119       -0.24984
H         -6.10719        2.67853       -1.22880
H         -6.61652        1.52700        0.01326
H         -5.90368        3.07264        0.48264
Li         1.15913        4.39266        0.41643
Li         1.93160       -4.31806       -0.32828
