35
Li_2764161_b3lyp_prop_3.log	Energy: -596885.6933378
C          3.67661        1.53619       -0.20973
C          3.01422        2.78100       -0.21310
C          1.64810        2.82144       -0.10997
C          0.86419        1.64194       -0.00024
C          1.52712        0.34927        0.00282
C          2.96974        0.34599       -0.10422
C          0.75945       -0.84459        0.10335
O          1.31002       -2.03316        0.09771
C         -0.65631       -0.71805        0.21175
C         -1.30457        0.56376        0.21676
C         -0.54818        1.75531        0.10163
O         -1.14047        2.93967        0.08394
C         -2.72424        0.60069        0.33881
C         -3.47487       -0.54163        0.44368
C         -2.82744       -1.81013        0.42710
C         -1.46406       -1.88437        0.31650
C         -4.98552       -0.46710        0.59658
C         -5.72269       -0.91732       -0.58839
N         -6.31133       -1.26603       -1.51735
H         -3.20486        1.57237        0.35013
H         -3.41984       -2.71671        0.50101
H         -0.96005       -2.84234        0.30738
H         -5.31668       -1.07871        1.44383
H         -5.29291        0.56037        0.81049
H          4.75686        1.50109       -0.28842
H          3.59219        3.69471       -0.29558
H          1.12606        3.76977       -0.10843
C          3.80759       -0.82128       -0.10569
C          4.68457       -1.66524       -0.12212
C          5.83613       -2.57239       -0.13944
H          5.87340       -3.17398       -1.05362
H          6.76490       -1.99610       -0.09280
H          5.83932       -3.25694        0.71538
Li         2.77832       -2.80022       -0.01751
Li        -1.91648        4.35208       -0.02169
