24
Li_22489347_b3lyp_prop_2.log	Energy: -393947.7518175
C         -1.03789       -2.07694       -0.00001
C          0.46720       -2.11395       -0.00013
C          0.96586       -0.84776        0.00001
C         -0.13719        0.12943        0.00000
C         -1.34376       -0.60056       -0.00001
C         -2.58830        0.03155       -0.00002
O         -3.73363       -0.65133        0.00001
C         -2.55511        1.44453        0.00003
C         -1.36515        2.16801        0.00006
C         -0.09660        1.54279        0.00002
O          1.03313        2.22699        0.00009
H         -1.45722       -2.59230        0.87667
H         -3.50435        1.97350        0.00006
H         -1.38865        3.25318        0.00011
H         -1.45731       -2.59230       -0.87665
H          1.05906       -3.01970       -0.00020
C          2.36547       -0.56608        0.00005
C          3.56707       -0.38391       -0.00001
C          5.03105       -0.32795        0.00016
H          5.42238        0.18254        0.88583
H          5.44191       -1.34160        0.00050
H          5.42264        0.18206       -0.88569
Li        -5.15499       -1.39707        0.00008
Li         2.63152        1.71522       -0.00085
