27
Li_265508_b3lyp_prop_2.log	Energy: -452631.4735157
C         -4.85174       -0.61949       -0.00020
C         -3.34513       -0.61316       -0.00003
C         -2.61473        0.55771       -0.00004
C         -1.20151        0.52853       -0.00000
C         -0.58712       -0.75639        0.00005
C         -1.43419       -1.88719        0.00007
N         -2.75357       -1.84058        0.00004
C          0.84662       -0.90577        0.00011
O          1.41660       -2.08186        0.00010
C          1.59769        0.29297        0.00003
C          0.96981        1.57553       -0.00002
C         -0.40270        1.72961       -0.00003
O         -0.98646        2.92151        0.00008
H         -5.22997       -1.14948       -0.87966
H         -5.26056        0.39349        0.00068
H         -5.23016       -1.15116        0.87814
H          1.59161        2.46453       -0.00006
H         -3.11762        1.51697       -0.00007
H         -0.97359       -2.87028        0.00012
C          3.01336        0.17301        0.00001
C          4.21925       -0.01273       -0.00005
C          5.68503       -0.03558       -0.00022
H          6.08610        0.46919        0.88452
H          6.08874       -1.05335       -0.00025
H          6.08590        0.46916       -0.88506
Li         3.14799       -2.07304        0.00033
Li        -1.67276        4.37816        0.00027
