21
Li_20443080_b3lyp_prop_0.log	Energy: -437264.9120199
O         -2.32528        1.67512       -0.00001
O          1.10811       -2.64626        0.00002
N          0.29774        3.33894        0.00007
N         -4.53733       -1.15215       -0.00005
C         -0.10846        0.81541       -0.00002
C         -1.99234       -0.70183       -0.00001
C         -1.52891        0.66004       -0.00005
C          0.79503       -0.28786        0.00002
C         -1.11108       -1.77441        0.00002
C          0.30221       -1.61833        0.00003
C          0.25965        2.17284       -0.00003
C         -3.40111       -0.93736       -0.00002
H         -1.49666       -2.78710        0.00003
C          2.20284       -0.10492        0.00002
C          3.41609       -0.00695        0.00001
C          4.84984        0.28812       -0.00007
H          5.35199       -0.10878        0.88756
H          5.35284       -0.11315       -0.88526
H          4.99875        1.37140       -0.00272
Li        -1.77168        3.35523        0.00009
Li         2.80667       -2.33166        0.00015
