24
Li_388306_b3lyp_prop_2.log	Energy: -427959.1371278
C         -3.65827       -0.56555        0.00003
C         -2.90400        0.59062       -0.00001
C         -1.49848        0.52920       -0.00002
C         -0.89727       -0.77397       -0.00001
C          0.53528       -0.96543        0.00000
O          1.03465       -2.17007       -0.00009
C          1.30986        0.21698       -0.00001
C          0.69716        1.50209       -0.00003
C         -0.67273        1.70263       -0.00006
O         -1.22113        2.91312        0.00005
N         -1.66904       -1.91065        0.00003
C         -2.98965       -1.80185        0.00005
H          1.34346        2.37341       -0.00003
H         -3.55654       -2.72939        0.00008
H         -4.74131       -0.53770        0.00004
H         -3.37532        1.56647       -0.00002
C          2.73014        0.12451        0.00000
C          3.93726        0.06217        0.00001
C          5.39012       -0.04422        0.00005
H          5.82829        0.43466        0.88244
H          5.70475       -1.09261        0.00176
H          5.82811        0.43171       -0.88403
Li        -0.29332       -3.30431       -0.00003
Li        -1.61765        4.47780       -0.00004
