37
Li_346879_b3lyp_prop_0.log	Energy: -563666.1706056
C          4.40535        1.54605        0.00012
C          2.89718        1.47636        0.00003
C          2.20679        0.26058       -0.00001
C          0.75644        0.21110       -0.00001
C          0.04208        1.47393       -0.00003
C          0.78975        2.67815        0.00001
C          2.15875        2.68567        0.00005
C         -1.37617        1.53666       -0.00005
O         -2.00524        2.70343       -0.00008
C         -2.09814        0.31856       -0.00002
C         -1.39941       -0.93479        0.00001
C          0.02512       -1.00782        0.00002
O          0.61499       -2.18022        0.00004
C         -2.17049       -2.13097        0.00004
C         -3.54027       -2.10463        0.00004
C         -4.24908       -0.86597        0.00001
C         -3.52475        0.30009       -0.00002
C         -5.75808       -0.86856        0.00001
H          4.83476        1.05427       -0.87908
H          4.83456        1.05535        0.88003
H          4.73846        2.58564       -0.00046
H          0.23836        3.60999        0.00000
H          2.69920        3.62677        0.00007
H         -1.63288       -3.07081        0.00007
H         -4.10039       -3.03554        0.00006
H         -4.04112        1.25373       -0.00003
H         -6.15627       -1.38560       -0.88041
H         -6.15626       -1.38584        0.88029
H         -6.15800        0.14841        0.00015
C          3.06076       -0.89202       -0.00004
C          3.96308       -1.71093       -0.00002
C          5.14583       -2.57714       -0.00014
H          5.19035       -3.21985       -0.88591
H          6.05390       -1.96610        0.00061
H          5.18973       -3.22104        0.88480
Li        -2.90939        4.03783       -0.00011
Li         2.10245       -2.90484        0.00010
