33
Li_346879_b3lyp_0.log	Energy: -549099.4836414
C         -4.90116        0.60226        0.00007
C         -3.40344        0.77468       -0.00014
C         -2.50395       -0.28884       -0.00005
C         -1.06433       -0.10461       -0.00002
C         -0.57637        1.25886        0.00001
C         -1.52423        2.31303       -0.00006
C         -2.87687        2.09187       -0.00015
C          0.81061        1.55366        0.00004
O          1.24166        2.80442        0.00005
C          1.72040        0.46314        0.00003
C          1.23697       -0.88800       -0.00002
C         -0.15893       -1.19492       -0.00004
O         -0.56361       -2.44231       -0.00009
C          2.19210       -1.94152       -0.00006
C          3.53923       -1.69065       -0.00004
C          4.03572       -0.35406        0.00002
C          3.12980        0.67817        0.00005
C          5.52464       -0.11056        0.00003
H         -5.21190       -0.44192       -0.00269
H         -5.33987        1.08700       -0.87840
H         -5.33911        1.08199        0.88170
H         -1.14112        3.32618       -0.00008
H         -3.56747        2.92882       -0.00025
H          1.81569       -2.95669       -0.00011
H          4.24394       -2.51731       -0.00008
H          3.48427        1.70302        0.00011
H          6.00103       -0.55639        0.88026
H          6.00100       -0.55610       -0.88036
H          5.75444        0.95771        0.00020
C         -3.06199       -1.59853        0.00008
N         -3.59628       -2.63470        0.00018
Li         1.94678        4.25840        0.00014
Li        -1.83362       -3.55650       -0.00003
