24
Li_388306_b3lyp_prop_3.log	Energy: -427970.4404245
C         -3.05819       -1.88526       -0.00002
C         -1.68046       -1.98429        0.00000
C         -0.88930       -0.82322       -0.00001
C         -1.55695        0.44238        0.00001
C         -0.83305        1.69831        0.00005
O         -1.49156        2.83467        0.00011
C          0.55323        1.59339       -0.00002
C          1.23131        0.33853       -0.00006
C          0.54845       -0.89752       -0.00003
O          1.17160       -2.05208       -0.00001
N         -2.92828        0.51596       -0.00002
C         -3.63652       -0.60580       -0.00004
H         -4.71825       -0.49749       -0.00007
H         -3.69143       -2.76404       -0.00002
H         -1.17626       -2.94369        0.00001
H          1.13331        2.50900       -0.00004
C          2.65480        0.28864       -0.00008
C          3.86828        0.17607       -0.00004
C          5.33247        0.23996       -0.00004
H          5.65353        1.28552       -0.00046
H          5.76864       -0.23269        0.88593
H          5.76863       -0.23342       -0.88562
Li        -3.19538        2.46014       -0.00003
Li         2.90038       -1.95440        0.00048
