21
Li_45079186_b3lyp_prop_0.log	Energy: -369253.5829237
C         -0.87273       -3.09838        0.00004
C         -0.78958       -1.88133       -0.00002
C         -0.84034       -0.47025       -0.00002
C          0.34650        0.33893       -0.00001
C          0.26251        1.75451       -0.00000
O          1.33524        2.50868        0.00001
C         -1.04865        2.31507        0.00002
C         -2.18513        1.54050        0.00002
C         -2.13574        0.11653       -0.00001
O         -3.22065       -0.61544       -0.00001
H         -0.78984       -4.15903        0.00012
H         -1.11833        3.39782        0.00004
H         -3.16839        1.99889        0.00003
C          1.64262       -0.23892       -0.00001
C          2.78623       -0.66150       -0.00001
C          4.08085       -1.34748        0.00001
H          4.67868       -1.10822        0.88562
H          3.92162       -2.42967        0.00037
H          4.67841       -1.10877       -0.88594
Li         2.85062        1.68655       -0.00006
Li        -3.05002       -2.33421       -0.00005
