24
Li_45082930_b3lyp_prop_0.log	Energy: -417278.9777594
C          1.19190       -2.58066       -0.00040
C          0.23913       -1.41850        0.00000
C          0.69824       -0.09709       -0.00011
C         -0.21810        1.02066       -0.00034
O          0.22565        2.22648       -0.00133
C         -1.62670        0.70016        0.00046
C         -2.05118       -0.65868        0.00068
C         -1.16451       -1.71642        0.00024
O         -1.56913       -2.98238        0.00002
C         -2.64254        1.69740        0.00056
O         -2.51506        2.94825        0.00029
H          2.22934       -2.25065        0.00252
H          1.02269       -3.21143       -0.88014
H          1.01863       -3.21530        0.87569
H         -3.11588       -0.87497        0.00089
H         -3.67360        1.30456        0.00100
C          2.09299        0.20536       -0.00018
C          3.27061        0.47491        0.00037
C          4.68595        0.82092        0.00073
H          5.16824        0.53800        0.94247
H          5.22284        0.31666       -0.80966
H          4.82409        1.89866       -0.13091
Li        -0.83754        3.60712       -0.00112
Li        -2.05672       -4.51805       -0.00078
