21
Li_45079186_b3lyp_prop_2.log	Energy: -369243.8507005
C         -2.89282        2.84269        0.00027
C         -2.28326        1.78686        0.00015
C         -1.46325        0.63132        0.00002
C         -2.02058       -0.66467        0.00007
C         -1.20085       -1.79481       -0.00008
O         -1.70019       -3.02711        0.00023
C          0.19413       -1.57725       -0.00006
C          0.77530       -0.30509       -0.00011
C         -0.05081        0.86324       -0.00018
O          0.43158        2.07474       -0.00042
H         -3.55547        3.67502        0.00025
H         -3.09776       -0.79006        0.00022
H          0.84359       -2.44632        0.00001
C          2.19355       -0.15964       -0.00004
C          3.39633       -0.04739        0.00009
C          4.84492        0.10840        0.00020
H          5.29527       -0.32618        0.89909
H          5.30124       -0.38133       -0.86670
H          5.12482        1.16614       -0.03177
Li        -2.25028       -4.53875       -0.00042
Li        -0.65598        3.41195       -0.00009
