24
Li_45082930_b3lyp_prop_1.log	Energy: -417290.2171731
C         -1.51025        3.34311        0.00006
C         -1.20256        1.87329        0.00000
C         -2.19072        0.92529        0.00005
C         -1.94096       -0.48765        0.00004
O         -2.94055       -1.29956        0.00008
C         -0.56396       -0.91048       -0.00003
C          0.47926        0.10446       -0.00008
C          0.19017        1.47992       -0.00007
O          1.12667        2.39607       -0.00013
C         -0.19382       -2.28012       -0.00011
O         -0.94720       -3.29174       -0.00004
H         -2.58695        3.52219        0.00011
H         -1.06577        3.82897       -0.87367
H         -1.06572        3.82890        0.87381
H          0.88866       -2.47794       -0.00025
H         -3.23507        1.22121        0.00009
C          1.85705       -0.24473       -0.00005
C          3.05706       -0.46510        0.00002
C          4.44761       -0.92935        0.00014
H          4.46853       -2.02317       -0.00061
H          4.99835       -0.59553       -0.88530
H          4.99778       -0.59670        0.88638
Li        -2.72180       -3.03262        0.00008
Li         2.76028        1.83332        0.00003
