24
Li_44131424_b3lyp_prop_0.log	Energy: -417240.7680973
C         -0.97161       -0.70527       -0.87033
C          0.14075        0.20648       -0.40509
C          1.25532       -0.56728       -0.10862
C          0.91995       -2.01394       -0.30618
O         -0.48393       -2.04051       -0.66682
C          2.46516        0.01107        0.29709
O          3.54097       -0.72533        0.57747
C          2.46214        1.41915        0.38202
C          1.33480        2.18996        0.09382
C          0.11059        1.60840       -0.30549
O         -0.99211        2.30452       -0.55033
H         -1.17753       -0.56153       -1.94391
H          1.05149       -2.61955        0.59813
H          1.49795       -2.48149       -1.11501
H          3.38133        1.90961        0.69043
H          1.37856        3.27093        0.18224
C         -2.25755       -0.53526       -0.15727
C         -3.32483       -0.41164        0.40090
C         -4.60269       -0.40712        1.11553
H         -5.42761       -0.08651        0.47282
H         -4.83114       -1.41868        1.46289
H         -4.57782        0.24398        1.99410
Li         4.89526       -1.52163        0.91625
Li        -2.56421        1.74385       -0.26377
