24
Li_56972288_b3lyp_prop_0.log	Energy: -417244.4084699
C         -2.83133        2.66728        0.21987
C         -1.95643        1.69426        0.54273
O         -1.03983        1.22932       -0.32122
C         -0.64081       -0.11205       -0.12459
C          0.74028       -0.38352       -0.03646
C          1.19972       -1.73392        0.08200
O          2.48084       -2.00402        0.16903
C          0.19877       -2.73494        0.10249
C         -1.14805       -2.43012        0.00623
C         -1.63151       -1.10305       -0.11980
O         -2.91544       -0.80999       -0.24012
H         -2.79278        3.15294       -0.74972
H         -3.45535        3.09862        0.99204
H         -1.94103        1.23147        1.52804
H          0.52552       -3.76506        0.19270
H         -1.88902       -3.22305        0.01246
C          1.71142        0.65189       -0.06248
C          2.60821        1.47667       -0.07522
C          3.54279        2.60440       -0.11675
H          2.99299        3.52835       -0.31821
H          4.07208        2.74047        0.83205
H          4.29153        2.49618       -0.90833
Li         3.55843       -0.66201        0.12111
Li        -3.81408        0.60739       -0.43798
