26
Li_57123206_b3lyp_prop_2.log	Energy: -394704.7872648
C          2.22953       -2.56503        0.94543
C          2.33618       -1.45748       -0.07545
C          3.33379       -1.42673       -0.96869
C          1.31461       -0.37302       -0.02607
C          1.72536        0.95887        0.02622
C          0.83462        2.05522        0.07080
O          1.29011        3.30469        0.12879
C         -0.52906        1.76332        0.06088
C         -0.97840        0.42727        0.00622
C         -0.07827       -0.68171       -0.03877
O         -0.54065       -1.91173       -0.12101
H          3.03714       -3.29167        0.82558
H          1.26636       -3.06877        0.84792
H          2.27914       -2.15408        1.96046
H          3.40226       -0.64484       -1.71680
H          4.10136       -2.19433       -0.98252
H          2.78878        1.17517        0.05226
H         -1.24762        2.57503        0.09797
C         -2.37139        0.13378       -0.02393
C         -3.54736       -0.18649       -0.05699
C         -5.00155       -0.37075       -0.07532
H         -5.46457        0.09648        0.79963
H         -5.44477        0.07940       -0.96934
H         -5.29225       -1.42634       -0.06684
Li         1.90496        4.78719        0.20070
Li        -2.24825       -2.10494       -0.19284
