30
Li_599944_b3lyp_prop_1.log	Energy: -443290.8648288
C         -1.16780        1.13797        1.69291
C         -0.86707        0.62769        0.26181
C         -1.60815       -0.67813        0.01626
C         -0.97306       -1.86076        0.03057
C          0.50392       -2.00173        0.22824
C          1.28183       -0.71935        0.05171
C          0.62694        0.51940        0.02041
C          1.35378        1.71292       -0.21703
O          0.74033        2.89638       -0.27450
C          2.74162        1.60959       -0.39554
C          3.39181        0.38080       -0.34312
C          2.68344       -0.80870       -0.11906
O          3.30524       -1.98838       -0.07275
H         -0.80645        0.41991        2.43428
H         -2.24328        1.27510        1.84535
H         -0.65983        2.08982        1.86382
H         -1.54892       -2.77136       -0.11119
H          0.69904       -2.43527        1.22383
H          0.89376       -2.75278       -0.47096
H          3.30430        2.52103       -0.57510
H          4.46782        0.32244       -0.47910
H         -1.26428        1.37493       -0.43421
C         -3.02028       -0.59461       -0.18808
C         -4.21115       -0.48136       -0.36285
C         -5.64861       -0.36852       -0.57668
H         -6.20482       -1.01501        0.10987
H         -5.99423        0.65780       -0.41791
H         -5.92335       -0.65626       -1.59686
Li         0.01181        4.32136       -0.39903
Li         4.11898       -3.36989       -0.00472
