37
Li_616789_b3lyp_prop_1.log	Energy: -563654.3113763
C          0.73610        3.88965        0.87429
C          0.94680        3.11291       -0.44537
C          1.06448        1.60755       -0.25626
C         -0.07120        0.71195       -0.13300
C          0.22803       -0.71140       -0.02690
C          1.57828       -1.14566        0.00853
C          2.63784       -0.27259       -0.07804
C          2.34767        1.11942       -0.22824
C         -0.79578       -1.69229        0.04642
O         -0.50243       -2.97887        0.13910
C         -2.14558       -1.25933        0.01683
C         -3.22176       -2.19112        0.07518
C         -4.52990       -1.77973        0.05587
C         -4.83628       -0.39570       -0.02285
C         -3.82355        0.52888       -0.07990
C         -2.45458        0.13962       -0.06506
C         -1.43203        1.13570       -0.12509
O         -1.78915        2.40520       -0.15738
H         -0.08107        3.46591        1.47173
H          0.57089        4.96695        0.70636
H          1.62489        3.81644        1.50357
H          0.16246        3.32548       -1.18003
H          1.87519        3.47536       -0.89609
H          3.18199        1.80447       -0.33757
H         -2.97832       -3.24475        0.13609
H         -5.33296       -2.50842        0.10048
H         -5.87214       -0.07287       -0.03890
H         -4.04077        1.58741       -0.14174
H          1.76377       -2.20666        0.10388
C          3.99066       -0.72425       -0.03633
C          5.14375       -1.08617        0.00084
C          6.53245       -1.52650        0.04719
H          6.77299       -1.99214        1.00880
H          6.74662       -2.25888       -0.73824
H          7.21700       -0.68407       -0.09182
Li        -0.14349       -4.54831        0.23960
Li        -1.40661        3.99813        0.01746
