37
Li_616789_b3lyp_prop_2.log	Energy: -563653.3759128
C         -2.50102       -2.47427        0.86338
C         -2.15732       -1.68486       -0.42196
C         -1.53144       -0.32583       -0.15090
C         -0.10292       -0.11723       -0.05592
C          0.37358        1.25693        0.04502
C         -0.57895        2.31208        0.14524
C         -1.91871        2.08103        0.12185
C         -2.41420        0.74814       -0.04699
C          1.74978        1.58167        0.05672
O          2.15485        2.84097        0.14135
C          2.69293        0.52511       -0.02184
C          4.09402        0.78151       -0.03636
C          5.01069       -0.23733       -0.09335
C          4.57043       -1.58614       -0.13592
C          3.22744       -1.86860       -0.12122
C          2.24733       -0.83749       -0.07059
C          0.86007       -1.17823       -0.05971
O          0.52785       -2.45152       -0.03269
H         -1.65272       -2.52556        1.55987
H         -2.87970       -3.48684        0.64597
H         -3.29634       -1.96769        1.41166
H         -1.50421       -2.24593       -1.09653
H         -3.09196       -1.53329       -0.96583
H          4.42273        1.81306       -0.00152
H          6.07324       -0.01623       -0.10532
H          5.29774       -2.39008       -0.18093
H          2.87486       -2.89141       -0.15326
H         -0.19948        3.32086        0.24369
H         -2.63073        2.89356        0.20591
C         -3.83137        0.57694       -0.11906
C         -5.03716        0.48751       -0.16392
C         -6.49047        0.38793       -0.22219
H         -6.89116        0.90502       -1.10027
H         -6.81612       -0.65564       -0.27660
H         -6.95507        0.83318        0.66369
Li         2.71913        4.34726        0.23467
Li        -0.64877       -3.59457        0.16749
