37
Li_616789_b3lyp_prop_5.log	Energy: -563653.9460208
C         -2.99230       -3.31167        0.85968
C         -3.06820       -2.50629       -0.45790
C         -2.99667       -0.99948       -0.26014
C         -1.76161       -0.25282       -0.12338
C         -1.87060        1.19588       -0.01898
C         -3.16009        1.79998        0.00424
C         -4.30390        1.05977       -0.09516
C         -4.20923       -0.34534       -0.24323
C         -0.72643        2.03354        0.05914
O         -0.85136        3.34977        0.15119
C          0.55123        1.42983        0.03209
C          1.74565        2.20748        0.08715
C          2.98545        1.63246        0.06994
C          3.12257        0.20762       -0.00363
C          1.97856       -0.56680       -0.05629
C          0.67858        0.00122       -0.04447
C         -0.46378       -0.85289       -0.10079
O         -0.28084       -2.15697       -0.11558
H         -2.14420       -2.99833        1.48223
H         -2.96028       -4.40021        0.68581
H         -3.88000       -3.13095        1.46850
H         -2.30027       -2.81738       -1.17370
H         -4.02520       -2.74288       -0.93259
H          2.05695       -1.64396       -0.11298
H         -3.20504        2.87736        0.09664
H         -5.27835        1.53648       -0.08074
H         -5.12096       -0.92356       -0.36417
H          1.64900        3.28495        0.14257
H          3.88031        2.24311        0.11097
C          4.42160       -0.38419       -0.02198
C          5.53077       -0.86469       -0.03647
C          6.86576       -1.44918       -0.05540
H          7.46520       -1.04839       -0.87950
H          7.40528       -1.24464        0.87542
H          6.81924       -2.53568       -0.17857
Li        -0.91086        4.95702        0.25338
Li        -0.84527       -3.69196        0.08283
