26
Li_67210468_b3lyp_prop_3.log	Energy: -465087.6411879
C         -2.60193        2.29210       -0.44139
C         -3.34741        1.40795        0.25823
O         -2.62153        0.24572        0.45916
C         -1.35179        0.41838       -0.13156
C         -1.34177        1.66808       -0.69537
C         -0.36272       -0.64120       -0.03597
C          1.04028       -0.29369       -0.03753
C          2.06279       -1.28246       -0.06234
O          3.33493       -0.96353       -0.04451
C          1.64016       -2.63849       -0.08340
C          0.31060       -2.97658       -0.05483
C         -0.73940       -2.01304       -0.01740
O         -1.98355       -2.42920        0.01079
H          2.41184       -3.40055       -0.10752
H          0.00319       -4.01709       -0.06370
H         -2.91477        3.27700       -0.75119
H         -4.34445        1.42149        0.66523
H         -0.52104        2.08658       -1.25089
C          1.50115        1.04709        0.06278
C          1.98924        2.16140        0.16233
C          2.34949        3.57644        0.29654
H          3.06730        3.90200       -0.46369
H          1.45469        4.19595        0.17962
H          2.77445        3.80539        1.27958
Li         3.75240        0.69601        0.07278
Li        -3.30647       -1.51285        0.52337
