34
Li_6773_b3lyp_prop_4.log	Energy: -538982.7866599
C          5.84681        0.12032        0.00008
C          4.37935       -0.23077        0.00001
C          3.40094        0.73236        0.00006
C          2.00929        0.42049        0.00003
C          1.62209       -0.96739       -0.00003
C          2.65618       -1.94725       -0.00010
C          3.98113       -1.60156       -0.00009
C          0.25497       -1.34817       -0.00001
O         -0.09844       -2.62130        0.00002
C         -0.72297       -0.31686       -0.00004
C         -2.10659       -0.63200       -0.00005
C         -3.08996        0.33861       -0.00016
C         -2.69369        1.71688       -0.00020
C         -1.36912        2.05419       -0.00012
C         -0.33323        1.07372       -0.00005
C          1.03184        1.45078        0.00004
O          1.38689        2.72656        0.00011
H          6.35560       -0.28846        0.88060
H          5.99658        1.20264       -0.00003
H          6.35573       -0.28866       -0.88027
H         -3.46101        2.48251       -0.00022
H         -1.07732        3.09737       -0.00010
H          3.67767        1.78062        0.00012
H          2.36437       -2.99052       -0.00018
H          4.74378       -2.37536       -0.00017
H         -2.39255       -1.67584        0.00001
C         -4.47478       -0.00775       -0.00022
C         -5.65363       -0.27642       -0.00014
C         -7.07460       -0.60109        0.00041
H         -7.68462        0.30406       -0.07875
H         -7.33708       -1.25053       -0.84135
H         -7.36765       -1.11712        0.92088
Li        -0.62643       -4.14661        0.00031
Li         1.80471        4.28280        0.00032
