37
Li_616789_b3lyp_prop_4.log	Energy: -563654.0903204
C         -4.39187       -2.05921        0.92039
C         -4.13694       -1.30037       -0.40227
C         -3.35338       -0.00795       -0.22719
C         -1.90899        0.06506       -0.12640
C         -1.32076        1.39378       -0.02087
C         -2.17042        2.53622        0.02564
C         -3.52955        2.42502       -0.04754
C         -4.11196        1.14178       -0.18713
C          0.08292        1.59281        0.03596
O          0.59633        2.80870        0.13256
C          0.92626        0.45408       -0.01384
C          2.33913        0.58721        0.02541
C          3.18421       -0.50474       -0.01497
C          2.61054       -1.81563       -0.09755
C          1.25249       -1.97377       -0.13593
C          0.36027       -0.86311       -0.09915
C         -1.04602       -1.07646       -0.14009
O         -1.49954       -2.31465       -0.17625
H         -3.46804       -2.20022        1.49546
H         -4.89473       -3.02725        0.75919
H         -5.05346       -1.48086        1.56789
H         -3.64035       -1.92850       -1.15000
H         -5.11198       -1.05249       -0.83215
H          3.27014       -2.67509       -0.13032
H          0.81661       -2.96248       -0.19996
H         -1.69762        3.50564        0.11500
H         -4.16321        3.30501       -0.01595
H         -5.19151        1.06274       -0.27954
H          2.75953        1.58235        0.08828
C          4.60259       -0.34355        0.02257
C          5.80559       -0.22834        0.05183
C          7.25605       -0.08911        0.08552
H          7.62159        0.49443       -0.76600
H          7.58862        0.41430        0.99940
H          7.74597       -1.06700        0.05026
Li         1.38446        4.21291        0.24407
Li        -2.73673       -3.38799       -0.00349
