33
Li_616789_b3lyp_7.log	Energy: -549091.6548772
C         -2.72943       -2.80657        1.07561
C         -2.77004       -2.12449       -0.30243
C         -2.50339       -0.62972       -0.24083
C         -1.18719       -0.03464       -0.13910
C         -1.10719        1.41148       -0.05099
C         -2.30315        2.18345       -0.06559
C         -3.52994        1.59231       -0.16940
C         -3.61664        0.18474       -0.25940
C          0.13757        2.09224        0.04507
O          0.18963        3.41111        0.12809
C          1.32410        1.32287        0.04703
C          2.58930        1.95867        0.13671
C          3.76994        1.25605        0.14129
C          3.73932       -0.15032        0.05403
C          2.52584       -0.81524       -0.03604
C          1.26202       -0.11773       -0.04448
C          0.02290       -0.80884       -0.13758
O          0.01984       -2.11814       -0.21909
H         -1.74677       -2.68834        1.53551
H         -2.94355       -3.87769        0.98573
H         -3.47610       -2.37279        1.74766
H         -3.76879       -2.26346       -0.73019
H         -2.05803       -2.60840       -0.96752
H         -2.21258        3.25969        0.00191
H         -4.43483        2.19096       -0.18643
H         -4.59607       -0.27564       -0.34594
H          2.59752        3.03947        0.20257
H          4.72179        1.76933        0.21097
H          4.66145       -0.71943        0.05695
C          2.61093       -2.23401       -0.11888
N          2.78400       -3.38501       -0.18052
Li         0.08855        5.02200        0.22421
Li         0.80561       -3.61661       -0.26741
