26
Li_67210468_b3lyp_prop_0.log	Energy: -465080.1231789
C          2.52065       -0.20635        0.01012
C          2.21412       -1.53187        0.05490
O          0.84230       -1.69211        0.05172
C          0.24689       -0.41658        0.00575
C          1.26903        0.49791       -0.02221
C         -1.19739       -0.26682        0.00200
C         -1.69152        1.06415        0.01656
C         -3.04823        1.36991        0.00458
O         -3.49298        2.62463        0.02016
C         -3.94830        0.27600       -0.02253
C         -3.49589       -1.02732       -0.03499
C         -2.11747       -1.36406       -0.02266
O         -1.75729       -2.62609       -0.03562
H          2.80899       -2.42831        0.08794
H          1.16169        1.56751       -0.06408
H         -0.99640        1.89564        0.04252
H         -5.01393        0.48646       -0.03166
H         -4.19577       -1.85606       -0.05503
C          3.82166        0.35920       -0.00312
C          4.92081        0.85684       -0.01545
C          6.24826        1.45595       -0.03040
H          6.77216        1.23421       -0.96525
H          6.18773        2.54368        0.06868
H          6.86113        1.07882        0.79386
Li        -4.06159        4.12675        0.03880
Li        -0.19764       -3.25181        0.02044
