37
Li_616789_b3lyp_prop_0.log	Energy: -563659.1235632
C          1.89865       -3.95492        0.83503
C          1.32422       -3.41507       -0.49358
C          0.23262       -2.37144       -0.31073
C          0.47296       -0.95622       -0.14245
C         -0.69034       -0.05663       -0.11310
C         -2.01376       -0.64426       -0.11678
C         -2.17340       -2.01205       -0.23706
C         -1.05636       -2.85644       -0.35990
C         -0.52289        1.35176       -0.08849
O         -1.54327        2.17721       -0.10744
C          0.80119        1.87709       -0.04762
C          1.01188        3.28414       -0.02939
C          2.27588        3.81510        0.02828
C          3.40479        2.95576        0.07221
C          3.23372        1.59446        0.05563
C          1.93629        1.01034       -0.00937
C          1.78655       -0.40602       -0.03754
O          2.86896       -1.15703        0.04600
H          2.16483       -3.14104        1.52108
H          2.76212       -4.62117        0.67286
H          1.15551       -4.55313        1.36621
H          2.11081       -3.01001       -1.13362
H          0.89358       -4.26237       -1.03604
H         -3.17104       -2.43485       -0.24566
H         -1.22121       -3.91927       -0.50705
H          0.13744        3.92148       -0.06101
H          2.41638        4.89109        0.04086
H          4.40304        3.37923        0.11728
H          4.08527        0.92712        0.08571
C         -3.25522        0.06174        0.03474
C         -4.40296        0.44611        0.17089
C         -5.81623        0.76087        0.40173
H         -6.32350        1.07367       -0.51694
H         -6.34087       -0.12266        0.77829
H         -5.95025        1.55408        1.14512
Li        -3.19510        2.27319       -0.14664
Li         3.72407       -2.52307        0.34312
