53
Li_6699_b3lyp_prop_10.log	Energy: -898787.2854922
O          3.27619        1.78071       -0.02764
O         -4.30591        0.62477       -0.26739
O          1.24582        2.17733        1.79596
O         -2.37098        0.88644       -2.21724
C          0.84893        1.52762       -0.49640
C         -1.93005        1.24045        0.13097
C         -0.13513        1.23240       -1.52245
C         -0.95820        1.61767        1.14155
C          0.42884        1.78275        0.84576
C         -1.52726        1.10216       -1.23317
C          2.20601        1.56968       -0.95418
C         -3.26812        1.06676        0.61343
C          0.27772        1.07724       -2.87463
C         -1.38254        1.84917        2.47918
C          2.57740        1.42279       -2.26230
C         -3.65239        1.30058        1.90496
C          1.59111        1.17813       -3.24845
C         -2.69026        1.70883        2.86048
C          4.19880        0.75815        0.16801
C         -4.85849       -0.63490       -0.05881
C          3.85421       -0.58534        0.06431
C         -4.13038       -1.69506        0.47940
C          5.48084        1.14847        0.55592
C         -6.17295       -0.81347       -0.49050
C          4.81396       -1.56829        0.35385
C         -4.73716       -2.94426        0.58010
C          6.42864        0.16844        0.85106
C         -6.76329       -2.07301       -0.38982
C          6.10693       -1.17876        0.75137
C         -6.04906       -3.14145        0.14676
H         -4.17381       -3.77209        0.99554
H          7.42895        0.46414        1.14585
H         -7.78715       -2.21027       -0.71853
H          6.84490       -1.93919        0.97306
H         -6.50999       -4.11842        0.23065
H         -0.49905        0.87545       -3.60016
H         -0.61965        2.14435        3.18728
H          3.62737        1.47554       -2.52632
H         -4.68856        1.15135        2.18609
H          1.88643        1.06404       -4.28514
H         -2.99627        1.89676        3.88324
H          2.85469       -0.86900       -0.23547
H         -3.11123       -1.53846        0.80762
H          5.73427        2.20261        0.58946
H         -6.73122        0.03645       -0.86907
C          4.47298       -2.95065        0.25251
C          4.18458       -4.11932        0.16681
C          3.82893       -5.52714        0.06128
H          3.71173       -5.97792        1.05151
H          2.88627       -5.65302       -0.47866
H          4.60101       -6.08909       -0.47254
Li         2.89542        2.51961        1.65721
Li        -4.05792        0.80864       -2.12245
