37
Li_73698_b3lyp_prop_0.log	Energy: -563649.3419230
C         -0.65962        3.46500        0.18561
C         -0.86845        1.96201        0.09157
C          0.19951        0.98546        0.00903
C         -0.17214       -0.43934        0.01197
C         -1.57135       -0.79739       -0.05835
C         -2.54995        0.18319        0.01016
C         -2.17202        1.55730        0.11447
C         -2.06295       -2.21712       -0.27963
C          0.85066       -1.43399        0.08580
O          0.58924       -2.71859        0.21962
C          2.21503       -1.02551        0.03118
C          3.25569       -1.99577        0.06385
C          4.57663       -1.62795        0.00120
C          4.92691       -0.25631       -0.09242
C          3.94555        0.70326       -0.11840
C          2.56760        0.35392       -0.05552
C          1.56638        1.36828       -0.05481
O          1.95247        2.63039       -0.10842
H         -0.02378        3.72962        1.04039
H         -1.62079        3.96042        0.34057
H         -0.25239        3.87280       -0.75229
H         -2.96632        2.29082        0.19134
H         -1.46107       -2.72361       -1.04018
H         -2.08319       -2.78977        0.66515
H         -3.09577       -2.20316       -0.62782
H          2.96987       -3.03701        0.13699
H          5.35536       -2.38348        0.02279
H          5.97232        0.03103       -0.14162
H          4.19501        1.75424       -0.18541
C         -3.94754       -0.10945       -0.02561
C         -5.14224       -0.29997       -0.03957
C         -6.58199       -0.52782       -0.05495
H         -7.05464       -0.14521        0.85563
H         -7.05647       -0.03107       -0.90760
H         -6.81417       -1.59525       -0.12329
Li        -0.50481       -3.93391        0.32305
Li         1.62078        4.23007       -0.09564
