25
Li_78494_b3lyp_prop_0.log	Energy: -370799.7036625
C         -0.73956       -2.70214        0.92658
C         -0.66781       -1.91712       -0.39624
C         -0.76985       -0.42261       -0.20918
C          0.39439        0.38273       -0.07727
C          0.33696        1.80099        0.11176
O          1.43240        2.52003        0.22600
C         -0.95392        2.36982        0.16300
C         -2.08827        1.58691        0.03689
C         -2.03411        0.18618       -0.14522
O         -3.15909       -0.52312       -0.25536
H          0.08646       -2.42782        1.58861
H         -0.68761       -3.78270        0.75131
H         -1.67243       -2.48390        1.45322
H          0.26635       -2.16563       -0.90986
H         -1.48646       -2.24118       -1.04613
H         -1.02930        3.44289        0.30249
H         -3.07130        2.04784        0.07819
C          1.69611       -0.19427       -0.12763
C          2.84057       -0.61571       -0.15743
C          4.13144       -1.30872       -0.21356
H          3.97234       -2.39061       -0.17679
H          4.67961       -1.09211       -1.13662
H          4.78077       -1.05245        0.63030
Li         2.92846        1.68613        0.12964
Li        -4.56202       -1.29480       -0.38631
