25
Li_73507565_b3lyp_prop_1.log	Energy: -464454.6920947
C          3.74219       -0.94796        1.06796
C          2.49187       -0.30663        0.52051
C          2.27810        1.07750        0.64093
C          1.12201        1.76229        0.16961
O          0.84618        3.05650        0.25712
C          0.23373        0.88077       -0.43670
C          0.42683       -0.46043       -0.56084
C          1.53407       -1.16460       -0.10612
O          1.61915       -2.48070       -0.26416
O         -0.68491       -1.03872       -1.24995
C         -1.70612       -0.01264       -1.21799
O         -1.01067        1.24313       -1.04345
H          4.38958       -0.20684        1.54164
H          4.30805       -1.44866        0.27547
H          3.49828       -1.72036        1.80462
H         -2.18727        0.00676       -2.19608
H          3.03177        1.68049        1.13805
C         -2.66762       -0.24792       -0.14438
C         -3.49880       -0.44177        0.70524
C         -4.47629       -0.67338        1.75829
H         -5.49166       -0.70462        1.35410
H         -4.28184       -1.62274        2.26475
H         -4.43177        0.12113        2.50816
Li        -0.73398        3.16208       -0.49283
Li         0.10962       -2.87486       -1.06259
