21
Li_70407085_b3lyp_prop_1.log	Energy: -426553.0186599
C         -0.77571        1.72131        0.02838
C         -0.97006        0.33045       -0.01422
C          0.13925       -0.56537       -0.07168
O          0.03263       -1.86845       -0.11493
C          1.38468        0.08310       -0.07498
C          1.60523        1.44560       -0.03542
C          0.49772        2.31420        0.01844
O          0.65836        3.62960        0.05762
O          2.59896       -0.72133       -0.16441
C          2.59989       -1.96674        0.05039
N          2.76358       -3.11002        0.22927
H          2.61388        1.83980       -0.04752
H         -1.64495        2.36757        0.07051
C         -2.28930       -0.21006       -0.00147
C         -3.41191       -0.65602        0.01052
C         -4.76205       -1.20388        0.02187
H         -5.28885       -0.95203        0.94836
H         -5.35754       -0.81722       -0.81182
H         -4.74419       -2.29504       -0.06253
Li         0.78041       -3.38594        0.05714
Li         0.76975        5.23697        0.10317
