25
Li_73507565_b3lyp_prop_0.log	Energy: -464466.7280244
C         -1.12573        2.61580        0.02828
C         -0.32222        1.34227        0.00261
C         -0.95645        0.06489       -0.00330
C         -0.27449       -1.20769       -0.02835
O         -0.91206       -2.35052       -0.05572
C          1.11931       -1.06612       -0.02850
C          1.70520        0.17112       -0.01497
C          1.08769        1.42599       -0.01270
O          1.82915        2.52617       -0.02805
O          3.11384        0.02639       -0.07516
C          3.30039       -1.38137        0.23856
O          2.11491       -2.04610       -0.12830
H         -1.76883        2.70673       -0.85460
H         -0.44798        3.46958        0.04896
H         -1.77736        2.66663        0.90784
H          4.13926       -1.76885       -0.33739
H          3.46693       -1.46050        1.32227
C         -2.37886       -0.01422        0.01164
C         -3.59133       -0.14053        0.02009
C         -5.05629       -0.09389        0.04091
H         -5.38942        0.94792        0.05834
H         -5.50102       -0.56032       -0.84432
H         -5.47555       -0.58237        0.92669
Li        -2.63257       -2.26446       -0.05379
Li         3.48050        1.94313       -0.09806
