21
102160488_b3lyp_2_Li.log	Energy: -426627.7971147
C         -2.45712        0.93415       -0.00028
C         -2.96256       -0.52758        0.00073
C         -1.71008       -1.39291        0.00038
O         -1.74266       -2.64550        0.00043
C         -0.55611       -0.54465        0.00006
C         -0.95213        0.81203       -0.00007
C         -0.01803        1.84675       -0.00017
O         -0.36279        3.12765       -0.00037
C          1.33750        1.44504       -0.00016
C          1.75701        0.10888       -0.00009
C          0.81362       -0.97238        0.00002
O          1.16350       -2.20839        0.00006
H         -2.80525        1.49023       -0.87702
H         -2.80556        1.49178        0.87534
H         -3.56767       -0.77435        0.87813
H         -3.56915       -0.77529       -0.87537
H          2.09337        2.22375       -0.00026
C          3.15195       -0.18765       -0.00014
N          4.29031       -0.39791       -0.00018
Li        -0.66380        4.71573       -0.00091
Li        -0.09173       -3.44605        0.00020
