24
102182508_b3lyp_4_Li.log	Energy: -427964.7932346
C          3.47982       -0.76607       -0.73705
C          2.19955       -0.70921       -1.17659
C          1.24747       -0.75958       -0.00055
C          2.19885       -0.71113        1.17618
C          3.47938       -0.76728        0.73729
C          0.04102        0.15931       -0.00023
C         -1.28337       -0.36642       -0.00014
C         -2.46155        0.45454        0.00012
O         -3.65591       -0.06819        0.00032
C         -2.21978        1.85372        0.00007
C         -0.94012        2.36305        0.00004
C          0.23336        1.54877        0.00001
O          1.43025        2.09178        0.00022
H          4.36689       -0.83320       -1.35524
H         -3.08174        2.51199        0.00016
H         -0.78242        3.43691        0.00006
H          1.86563       -0.69973       -2.20496
H          0.87566       -1.80112       -0.00149
H          1.86433       -0.70336        2.20437
H          4.36608       -0.83542        1.35589
C         -1.61619       -1.73170       -0.00026
N         -2.13266       -2.78088       -0.00044
Li        -3.94315       -1.80143        0.00023
Li         2.97941        1.39921        0.00196
