18
10986586_b3lyp_0_Li.log	Energy: -604600.4348544
C          0.69557        1.82955        0.00010
C          1.53678        0.68037       -0.00004
C          1.04775       -0.66522       -0.00017
O          1.83461       -1.70042        0.00007
C         -0.36660       -0.74875       -0.00006
C         -1.21482        0.37244        0.00006
C         -0.68426        1.70874        0.00016
O         -1.49980        2.75156        0.00006
C         -2.59589       -0.01441        0.00009
C         -2.77116       -1.36413        0.00001
S         -1.26943       -2.24906       -0.00007
H          1.14012        2.81791        0.00014
H         -3.41077        0.69634        0.00016
H         -3.70452       -1.90803        0.00002
C          2.94168        0.70898       -0.00013
N          4.08555        0.46847       -0.00013
Li         3.59231       -1.51923        0.00020
Li        -2.43420        4.06753       -0.00005
