22
11029986_b3lyp_3_Li.log	Energy: -380133.1124739
C          4.00933       -1.57038        0.84931
C          3.21173       -0.55842        0.51299
C          2.37343       -0.49230       -0.73952
C          0.92223       -0.16148       -0.45409
C         -0.03483       -1.16359       -0.47417
C         -1.40411       -0.92028       -0.20606
O         -2.31820       -1.85009       -0.22110
C         -1.72999        0.44655        0.09051
C         -0.76263        1.47448        0.11056
C          0.57219        1.19632       -0.15783
O          1.50204        2.14653       -0.14971
H          4.11128       -2.44985        0.22000
H          4.58322       -1.56044        1.76968
H          2.78071        0.28791       -1.39487
H         -1.05561        2.49374        0.33549
H          3.12315        0.29759        1.17821
H          2.44272       -1.44223       -1.27629
H          0.25106       -2.18581       -0.70072
C         -3.10205        0.61608        0.34829
N         -4.25158        0.49547        0.51806
Li        -4.00896       -1.50564        0.12672
Li         2.58298        3.34480       -0.15049
