24
11805258_b3lyp_1_Li.log	Energy: -451268.8954996
C         -3.88670       -0.94478       -0.00017
C         -2.48734       -0.39011       -0.00001
C         -2.25428        1.00096       -0.00001
C         -0.98552        1.60784        0.00004
O         -0.81983        2.92137        0.00010
C          0.11078        0.70170        0.00007
C         -0.16978       -0.66747        0.00011
C         -1.40681       -1.30740        0.00005
O         -1.48564       -2.62834        0.00004
O          1.01644       -1.41317        0.00004
C          2.04509       -0.46070       -0.00007
C          1.54428        0.81581       -0.00005
C          2.36453        2.06506       -0.00013
H         -4.05460       -1.58077       -0.87540
H         -4.63220       -0.14646        0.00021
H         -4.05446       -1.58158        0.87447
H          2.13363        2.67100        0.87997
H          3.43300        1.84180       -0.00014
H          2.13359        2.67089       -0.88030
H         -3.11455        1.66476       -0.00004
C          3.36235       -0.94581       -0.00004
N          4.44938       -1.35150       -0.00001
Li        -0.87688        4.53821        0.00013
Li         0.17772       -3.19445        0.00019
