18
12209139_b3lyp_1_Li.log	Energy: -401907.5070938
C         -1.96353        1.53866        0.00007
C         -0.67902        2.16245        0.00013
C          0.52193        1.45881       -0.00006
O          1.72990        1.98185       -0.00009
C          0.34845        0.03925       -0.00006
C          1.28437       -0.99320        0.00001
O          0.64622       -2.21127       -0.00003
C         -0.68175       -1.95874       -0.00016
C         -0.94277       -0.60715       -0.00012
C         -2.15682        0.16798       -0.00018
O         -3.33814       -0.42917       -0.00014
H         -2.84456        2.17356        0.00024
H         -1.31644       -2.82881       -0.00020
H         -0.62799        3.24656        0.00033
C          2.67021       -0.88371        0.00013
N          3.80618       -0.60820        0.00054
Li         3.34746        1.41314       -0.00016
Li        -4.86894       -0.95025       -0.00007
