18
12209139_b3lyp_0_Li.log	Energy: -401914.1125007
C          0.25373        1.69482       -0.00004
C          1.30168        0.69236       -0.00002
C          1.07065       -0.70754       -0.00000
O          2.01858       -1.58958       -0.00003
C         -0.32856       -1.06616        0.00003
C         -0.96045       -2.28106        0.00008
O         -2.30346       -2.10053        0.00009
C         -2.55246       -0.75527        0.00003
C         -1.37329       -0.06084        0.00001
C         -1.07540        1.35975       -0.00005
O         -2.06797        2.23503       -0.00010
H          0.53527        2.74153       -0.00005
H         -0.60891       -3.29789        0.00012
H         -3.58914       -0.46992        0.00003
C          2.67344        0.97660        0.00004
N          3.84421        0.95049        0.00007
Li         3.72235       -1.06999       -0.00008
Li        -3.21567        3.36916       -0.00017
