28
12344381_b3lyp_0_Li.log	Energy: -557645.5544885
C          3.47763        1.03384        0.00023
C          3.41666       -0.39540        0.00009
C          2.19079       -1.03042       -0.00004
C          0.97986       -0.29862       -0.00003
C          1.03597        1.14064        0.00011
C          2.32094        1.76056        0.00024
C         -0.15030        1.91429        0.00011
O         -0.10887        3.23420        0.00039
C         -1.39223        1.22108        0.00004
C         -2.60893        1.95201        0.00011
C         -3.83961        1.34088        0.00004
C         -3.92008       -0.06613       -0.00011
C         -2.76063       -0.82469       -0.00017
C         -1.44907       -0.22563       -0.00010
C         -0.26144       -1.00760       -0.00016
O         -0.28682       -2.31230       -0.00033
C         -2.93372       -2.23826       -0.00031
N         -3.14787       -3.38234       -0.00041
H          4.44422        1.52299        0.00033
H          2.12970       -2.11051       -0.00014
H          2.36473        2.84230        0.00034
H         -2.53798        3.03239        0.00021
H         -4.74954        1.92919        0.00009
H         -4.88433       -0.56017       -0.00016
C          4.62486       -1.15650        0.00008
N          5.61269       -1.75997        0.00008
Li         0.10117        4.84208        0.00076
Li        -1.18089       -3.76060       -0.00055
