29
12506460_b3lyp_2_Li.log	Energy: -547530.0228611
C          3.34314        2.56332        0.00055
C          2.60554        1.59845       -0.00002
C          1.95827        0.32185       -0.00005
C          0.53522        0.12514       -0.00004
C          0.03866       -1.24472       -0.00006
C          0.97659       -2.31313       -0.00008
C          2.32541       -2.10481       -0.00009
C          2.83430       -0.77397       -0.00007
C         -1.34393       -1.53120       -0.00004
O         -1.78407       -2.77819       -0.00005
C         -2.25464       -0.43723       -0.00001
C         -3.66181       -0.65284        0.00001
C         -4.54887        0.39387        0.00004
C         -4.07350        1.73018        0.00004
C         -2.72326        1.97572        0.00002
C         -1.77605        0.91534       -0.00000
C         -0.37827        1.21717       -0.00002
O          0.02246        2.45914       -0.00003
H          4.10115        3.31137        0.00043
H         -4.02097       -1.67443        0.00000
H         -5.61705        0.20294        0.00005
H         -4.77934        2.55377        0.00006
H         -2.34051        2.98825        0.00003
H          0.58451       -3.32181       -0.00009
H          3.02469       -2.93128       -0.00011
C          4.24788       -0.59248       -0.00007
N          5.40068       -0.48387       -0.00009
Li        -2.43870       -4.25728       -0.00006
Li         1.34119        3.47949        0.00016
