24
12587549_b3lyp_3_Li.log	Energy: -451289.1909567
C         -2.27281       -1.83471        0.56061
C         -0.89897       -1.98009       -0.11297
C         -0.09925       -0.69892       -0.06041
C         -0.72544        0.54341       -0.02255
C         -2.23236        0.65675       -0.06011
C         -3.01700       -0.64356        0.00554
O         -4.17478       -0.69540       -0.35792
C          0.01264        1.77071        0.02963
O         -0.63085        2.93124        0.05883
C          1.39848        1.69601        0.04482
C          2.03885        0.43950        0.00456
C          1.32237       -0.79835       -0.05349
O          1.95008       -1.94377       -0.09734
H         -2.12354       -1.65725        1.63444
H         -2.89129       -2.72659        0.44544
H         -1.03516       -2.29469       -1.15650
H         -2.56238        1.20039       -0.95197
H         -0.32245       -2.77629        0.36155
H         -2.57201        1.27251        0.78460
H          1.98187        2.60843        0.08483
C          3.43174        0.24047        0.01068
N          4.52318       -0.17499        0.00435
Li        -1.39097        4.35710        0.04601
Li         3.71015       -2.05224       -0.09241
