20
129814774_b3lyp_1_Li.log	Energy: -447340.0245776
C         -1.95120        1.92358       -0.00032
C         -0.71106        2.51740       -0.00036
C          0.50785        1.77961       -0.00025
O          1.67717        2.40607       -0.00034
C          0.40348        0.38767       -0.00003
C         -0.87185       -0.23514       -0.00000
C         -2.10053        0.50774       -0.00015
O         -3.25469       -0.08207       -0.00011
C          1.69905       -0.41421        0.00013
C          1.88221       -1.22532        1.21550
N          2.03804       -1.81762        2.19181
C          1.88238       -1.22566       -1.21498
N          2.03838       -1.81824       -2.19108
H         -2.85541        2.52175       -0.00043
H          2.49488        0.34099        0.00009
H         -0.63248        3.60031       -0.00050
C         -1.11495       -1.62276        0.00021
N         -1.58562       -2.68962        0.00035
Li         2.91732        3.46427       -0.00072
Li        -3.44222       -1.84231        0.00017
