20
130029688_b3lyp_0_Li.log	Energy: -447370.8514497
C         -0.94012       -2.96386        0.00007
C         -0.52333       -1.52359       -0.00001
C         -1.43258       -0.47304        0.00002
C         -1.04170        0.92222       -0.00014
O         -1.90650        1.87471       -0.00012
C          0.35738        1.17327        0.00001
C          1.30159        0.10383       -0.00002
C          0.89639       -1.25716       -0.00018
O          1.75897       -2.22479       -0.00025
C          2.70136        0.23422        0.00015
N          3.85560        0.06840        0.00028
C          0.64168        2.54760        0.00003
N          0.59868        3.71351       -0.00000
H         -2.02308       -3.07746        0.00008
H         -0.52335       -3.47329        0.87377
H         -0.52335       -3.47339       -0.87357
C         -2.83909       -0.73472        0.00012
N         -3.97289       -0.95996        0.00016
Li        -1.46549        3.59873       -0.00009
Li         3.51574       -1.96590       -0.00012
