22
130027375_b3lyp_0_Li.log	Energy: -414137.2108312
C         -0.33089        2.99312       -0.00047
C         -0.08439        1.51080       -0.00029
C         -1.14783        0.58466       -0.00028
C         -0.96705       -0.84115       -0.00000
O         -1.97777       -1.64713        0.00031
C          0.38971       -1.28083       -0.00002
C          1.46420       -0.37278       -0.00002
C          1.23360        1.02914        0.00001
O          2.25834        1.87132        0.00025
C          2.88992       -0.84977        0.00011
C          0.62301       -2.68843       -0.00025
N          0.83252       -3.82699       -0.00033
H          0.12436        3.46160        0.87846
H         -1.39622        3.23242       -0.00198
H          0.12690        3.46159       -0.87806
H          3.41986       -0.46726        0.87913
H          2.95842       -1.93689        0.00003
H          3.42015       -0.46707       -0.87865
C         -2.51666        0.92184       -0.00004
N         -3.68337        0.94084        0.00015
Li        -3.66006       -1.12016        0.00089
Li         3.57212        2.81533        0.00091
