22
130029677_b3lyp_0_Li.log	Energy: -414149.9411359
C          0.60897        2.88552       -0.00002
C          0.29546        1.41649        0.00024
C          1.28803        0.42130       -0.00047
C          1.05281       -1.00342       -0.00070
O          2.05071       -1.84817       -0.00068
C         -0.29535       -1.41645       -0.00073
C         -1.28809       -0.42105       -0.00010
C         -1.05294        1.00354        0.00025
O         -2.05053        1.84819        0.00035
C         -2.67665       -0.70055       -0.00023
N         -3.84133       -0.67961       -0.00021
C         -0.60907       -2.88543        0.00068
H          0.16678        3.37376        0.87367
H          0.17206        3.37236       -0.87722
H          1.68456        3.07494        0.00292
H         -1.68443       -3.07478       -0.02255
H         -0.14905       -3.37779       -0.86122
H         -0.19034       -3.36826        0.88909
C          2.67667        0.70043       -0.00004
N          3.84134        0.67931        0.00054
Li         3.74232       -1.38019        0.00069
Li        -3.74238        1.37999        0.00011
