23
130412007_b3lyp_1_Li.log	Energy: -404056.1271016
C         -0.18163        2.70673        0.46373
C         -1.24517        1.86095       -0.24931
C         -1.02451        0.37578       -0.06648
C          0.30088       -0.12556        0.01090
C          1.39178        0.86054       -0.01098
C          1.19688        2.19002        0.18542
C          0.56741       -1.52165        0.12203
O          1.78447       -2.00889        0.19278
C         -0.56088       -2.37410        0.16345
C         -1.84928       -1.88077        0.08642
C         -2.11985       -0.49889       -0.04596
O         -3.37406       -0.06338       -0.15834
H         -0.35272        2.67238        1.55136
H         -0.26085        3.75913        0.17391
H         -2.24185        2.12415        0.11127
H          2.03888        2.87316        0.17499
H         -0.37932       -3.43943        0.25715
H         -2.69569       -2.56095        0.11692
H         -1.23045        2.10369       -1.32282
C          2.74171        0.44477       -0.23134
N          3.85644        0.16257       -0.40614
Li         3.43912       -1.76730       -0.02937
Li        -4.92591        0.32771       -0.32482
