19
141161619_b3lyp_0_Li.log	Energy: -425855.0793774
C         -0.95683        0.88314       -0.00002
C         -0.64628       -0.50537       -0.00001
C          0.66184       -1.02287        0.00006
C          1.70518        0.00789        0.00012
C          1.39141        1.35068        0.00010
C          0.04016        1.85246        0.00003
C         -2.41380        1.00138       -0.00017
C         -2.97801       -0.23546       -0.00021
C         -1.89812       -1.24061       -0.00012
H          2.19228        2.08236        0.00014
H         -2.94617        1.94328       -0.00021
O          0.95453       -2.27004        0.00003
O         -0.16986        3.14723        0.00000
O         -2.04141       -2.49290       -0.00014
H         -4.02933       -0.48487       -0.00029
C          3.07302       -0.39932        0.00018
N          4.18967       -0.70179        0.00023
Li        -0.44352       -3.38306       -0.00006
Li        -0.34385        4.76504       -0.00003
