22
141345307_b3lyp_1_Li.log	Energy: -380137.9337352
O          2.53732        1.06602       -0.04262
O         -1.87430       -2.23013        0.04683
C          1.59488       -1.11307        0.00864
C          0.15556        0.87024       -0.03953
C          1.44870        0.31198       -0.03137
C          0.49301       -1.94367        0.04563
C         -0.96415       -0.01790       -0.01049
C         -0.83512       -1.44604        0.03400
C          2.98595       -1.68881        0.01700
C          0.03033        2.32453       -0.09144
C         -1.02965        3.09626        0.19352
H          3.54924       -1.36923       -0.86630
H          2.95902       -2.77995        0.03322
H          3.54921       -1.34496        0.89163
H          0.94683        2.82121       -0.39468
H         -0.96544        4.17347        0.08794
H         -1.97910        2.70740        0.54029
H          0.61571       -3.02148        0.07407
C         -2.31918        0.35219       -0.06793
N         -3.48733        0.38351       -0.10390
Li         3.88388        1.95752        0.01871
Li        -3.52730       -1.63496       -0.02563
