20
15269886_b3lyp_1_Li.log	Energy: -402719.9854218
C         -2.23359       -2.53625        0.00029
C         -1.08575       -1.56637        0.00009
C          0.21435       -1.98770       -0.00029
C          1.34096       -1.09296       -0.00032
O          2.55774       -1.54039       -0.00024
C          1.03069        0.28807       -0.00025
C         -0.32851        0.79111       -0.00005
C         -1.41290       -0.14561        0.00006
O         -2.65123        0.19694        0.00009
C         -0.53401        2.19764       -0.00051
O         -1.62580        2.81971       -0.00008
H         -1.87695       -3.56762       -0.00027
H         -2.87253       -2.37991       -0.87365
H         -2.87153       -2.38063        0.87509
H          0.38277        2.81063       -0.00162
H          0.44687       -3.04819       -0.00050
C          2.19363        1.07317        0.00039
N          3.29083        1.47755        0.00066
Li         3.95764       -0.44970        0.00011
Li        -3.15738        1.87845        0.00046
