21
15736817_b3lyp_2_Li.log	Energy: -426611.7319825
C          3.92591       -1.38560       -0.00029
C          2.49153       -1.00428       -0.00010
C          1.33170       -1.70034        0.00002
C          0.24242       -0.75143        0.00024
C          0.82954        0.50142        0.00017
O          2.22009        0.37464        0.00001
C          0.22741        1.78224        0.00010
O          0.98414        2.86276        0.00002
C         -1.16514        1.70289        0.00007
C         -1.82953        0.43942        0.00014
C         -1.17823       -0.84467        0.00028
O         -1.83615       -1.96604        0.00041
H          4.44700       -1.00534        0.88557
H          4.44684       -1.00500       -0.88610
H          4.01401       -2.47266       -0.00051
H          1.24669       -2.77564       -0.00004
H         -1.74693        2.61669       -0.00004
C         -3.22868        0.28974       -0.00015
N         -4.33284       -0.09125       -0.00047
Li         2.63909        2.30528       -0.00018
Li        -3.60704       -1.99408       -0.00047
