17
20443080_b3lyp_0_Li.log	Energy: -422690.7610270
O         -2.23705        1.27345       -0.00009
O          2.07033       -2.16535        0.00016
N         -0.07379        3.49630       -0.00018
N         -3.76356       -1.95313        0.00025
C          0.11495        0.95033       -0.00008
C         -1.37516       -0.96385        0.00007
C         -1.22813        0.47608       -0.00004
C          1.23008        0.06114       -0.00005
C         -0.29018       -1.81948        0.00011
C          1.06182       -1.35485        0.00002
C          0.16523        2.35519       -0.00015
C         -2.70104       -1.49876        0.00015
H         -0.44455       -2.89188        0.00020
C          2.58747        0.42747       -0.00009
N          3.75307        0.45058       -0.00012
Li        -2.09958        3.04522       -0.00018
Li         3.75894       -1.62150        0.00016
