17
23115907_b3lyp_1_Li.log	Energy: -411986.7159506
C         -2.38604       -1.15611        0.00010
C         -2.57946        0.23779        0.00017
C         -1.55280        1.21205        0.00014
O         -1.75985        2.51654       -0.00012
C         -0.28740        0.62279        0.00013
C         -0.07376       -0.75888        0.00008
C         -1.10343       -1.74083       -0.00000
O         -0.79340       -3.01209       -0.00021
N          1.28733       -1.00631        0.00006
C          1.84461        0.17662        0.00009
O          0.96861        1.21934        0.00003
H         -3.24956       -1.81190        0.00005
H         -3.59695        0.61736        0.00018
C          3.22930        0.46213        0.00003
N          4.36465        0.68346       -0.00003
Li        -1.85073        4.13062       -0.00051
Li         0.98865       -3.02037       -0.00033
