25
23162507_b3lyp_0_Li.log	Energy: -404827.7066139
C          1.39659        2.70403        0.04818
C          0.67700        1.38285        0.01267
C          1.38581        0.15180        0.00746
C          0.76134       -1.14712       -0.03086
O          1.46831       -2.24579       -0.04726
C         -0.64880       -1.11659       -0.04655
C         -1.34805        0.08183       -0.03875
C         -0.72225        1.35333       -0.01865
O         -1.44277        2.47136       -0.02735
C         -2.83606       -0.17589       -0.08560
C         -2.95478       -1.68115        0.26406
C         -1.58311       -2.30129       -0.10478
H          1.10274        3.28824        0.92756
H          1.14770        3.31115       -0.82962
H          2.48146        2.57906        0.07415
H         -3.22367        0.03524       -1.09226
H         -3.39505        0.46562        0.60252
H         -3.11925       -1.78653        1.34094
H         -3.79222       -2.16876       -0.24131
H         -1.28311       -3.10719        0.56985
H         -1.59509       -2.73173       -1.11512
C          2.78835        0.03998        0.03240
N          3.90394       -0.30883        0.04605
Li         3.22600       -2.23304       -0.01562
Li        -2.34318        3.80690       -0.05093
