21
24973987_b3lyp_0_Li.log	Energy: -629278.3541997
C         -2.19751        2.34927        0.00028
C         -1.13927        1.27838        0.00014
C         -1.49306       -0.10639        0.00003
C         -0.55258       -1.18989       -0.00010
O         -0.92009       -2.43740       -0.00015
C          0.79594       -0.76645       -0.00010
C          1.17926        0.58566        0.00002
C          0.20590        1.63753        0.00016
O          0.59294        2.90564        0.00030
C          2.60760        0.72478       -0.00001
C          3.25926       -0.46984       -0.00012
S          2.18084       -1.83987       -0.00026
H         -2.10449        2.99665       -0.87922
H         -2.10516        2.99581        0.88049
H         -3.20546        1.92835       -0.00028
H          3.11026        1.68210        0.00008
H          4.32639       -0.63831       -0.00015
C         -2.81178       -0.59486       -0.00002
N         -3.79000       -1.23514       -0.00011
Li        -2.62082       -2.90845       -0.00017
Li         0.99072        4.46989        0.00056
