21
24973987_b3lyp_2_Li.log	Energy: -629261.4480467
C          3.88453       -0.73623        0.00012
C          2.46457       -0.22903       -0.00002
C          2.20210        1.15293       -0.00007
C          0.91215        1.70473       -0.00019
O          0.66944        3.00655        0.00003
C         -0.12961        0.76470       -0.00009
C          0.08579       -0.63369       -0.00004
C          1.40813       -1.15943       -0.00007
O          1.62233       -2.46499       -0.00008
C         -1.14176       -1.35630        0.00003
C         -2.25289       -0.55383        0.00004
S         -1.83899        1.16779       -0.00003
H          4.08837       -1.35807       -0.87967
H          4.08826       -1.35790        0.88006
H          4.59804        0.09082        0.00009
H          3.03762        1.84754       -0.00001
H         -1.20270       -2.43591        0.00006
C         -3.59917       -0.97323        0.00009
N         -4.70781       -1.31260        0.00013
Li         0.15627        4.53926        0.00032
Li         1.98757       -4.03897       -0.00008
