31
2764161_b3lyp_5_Li.log	Energy: -582316.4645556
C          4.70711        0.20154       -0.30531
C          4.58235       -1.20955       -0.22829
C          3.34471       -1.78311       -0.08493
C          2.15984       -0.99650       -0.00884
C          2.28988        0.43289       -0.08586
C          3.58824        0.99266       -0.23511
C          1.15229        1.29721       -0.01888
O          1.29337        2.59629       -0.09540
C         -0.11600        0.68435        0.13195
C         -0.24900       -0.75887        0.21321
C          0.88281       -1.60726        0.13758
O          0.75665       -2.92127        0.19675
C         -1.54295       -1.31790        0.37095
C         -2.68548       -0.55775        0.44810
C         -2.57699        0.85083        0.36199
C         -1.33750        1.44608        0.21170
C         -4.04925       -1.20162        0.63336
C         -4.89208       -1.14585       -0.56557
N         -5.55644       -1.10336       -1.50751
H          5.68792        0.65048       -0.41948
H         -3.93187       -2.25203        0.91310
H         -4.59888       -0.71922        1.44959
H          5.46910       -1.83240       -0.28313
H          3.24765       -2.86030       -0.02472
H          3.66218        2.07118       -0.29157
H         -1.60573       -2.39837        0.43233
H         -3.46540        1.47046        0.41142
C         -1.33176        2.86979        0.14340
N         -1.40026        4.03068        0.09623
Li         0.59271        4.13926       -0.11457
Li         0.83212       -4.54019        0.16917
