31
2764161_b3lyp_3_Li.log	Energy: -582315.3462358
C          4.85953       -0.25717       -0.00029
C          4.60870        1.14014       -0.00038
C          3.31858        1.60594       -0.00016
C          2.20710        0.71796        0.00016
C          2.45866       -0.69806        0.00028
C          3.81233       -1.14215        0.00003
C          1.38349       -1.62760        0.00069
O          1.60215       -2.92887       -0.00002
C          0.06209       -1.10815        0.00045
C         -0.18816        0.32025        0.00029
C          0.88051        1.24794        0.00034
O          0.67527        2.54341        0.00041
C         -1.57021        0.74373        0.00005
C         -2.63285       -0.15916       -0.00001
C         -2.35019       -1.54185        0.00016
C         -1.04724       -1.98337        0.00037
C         -4.06647        0.36075       -0.00024
C         -5.09401       -0.67672       -0.00040
N         -5.91895       -1.48202       -0.00052
H          5.88180       -0.62073       -0.00046
H         -3.16697       -2.25278        0.00012
H         -0.84373       -3.04695        0.00049
H         -4.24097        0.99870        0.87343
H         -4.24070        0.99869       -0.87396
H          5.44072        1.83619       -0.00063
H          3.10806        2.66776       -0.00025
H          3.99815       -2.20921        0.00013
C         -1.90519        2.12539       -0.00022
N         -2.29138        3.22579       -0.00065
Li         2.01408       -4.49619       -0.00085
Li        -0.38184        3.86234        0.00064
