27
297370_b3lyp_2_Li.log	Energy: -405586.4423522
C          3.77224       -1.13964       -0.64037
C          2.87292       -1.17168        0.60759
C          1.44457       -0.77172        0.32373
C          0.43581       -1.71144        0.18922
C         -0.92147       -1.40490       -0.09172
O         -1.81759       -2.38249       -0.19872
C         -1.27279       -0.06030       -0.24822
C         -0.24717        0.91111       -0.11084
C          1.12747        0.60875        0.17429
O          2.01958        1.55810        0.28886
C         -2.69974        0.34193       -0.52546
C         -3.56634        0.42607        0.74452
H          3.40559       -1.83095       -1.40513
H          4.79980       -1.42382       -0.39062
H          3.79082       -0.13551       -1.06903
H          3.28872       -0.49019        1.35608
H         -2.72274        1.30899       -1.03945
H         -3.14086       -0.38939       -1.21017
H         -3.18060        1.18325        1.43259
H         -4.60069        0.68986        0.49973
H         -3.56928       -0.53134        1.27165
H          2.88431       -2.17770        1.04057
H          0.67999       -2.76454        0.30842
C         -0.44822        2.29957       -0.23662
N         -0.36526        3.46390       -0.28992
Li        -2.84902       -3.61459       -0.31625
Li         1.62306        3.26217        0.11524
