24
4055_b3lyp_3_Li.log	Energy: -427975.4020026
C          3.41496       -1.82547        0.00005
C          2.26540       -0.85103       -0.00002
C          2.50812        0.53889       -0.00000
C          1.50185        1.50010       -0.00007
O          1.77186        2.79844        0.00010
C          0.14995        1.02975       -0.00004
C         -0.94865        1.92725        0.00000
C         -2.24836        1.48783        0.00002
C         -2.51243        0.08845       -0.00000
C         -1.46000       -0.81292       -0.00004
C         -0.11699       -0.38285       -0.00006
C          0.95569       -1.33793       -0.00011
O          0.69943       -2.63723       -0.00006
H          4.37488       -1.30390        0.00016
H          3.38430       -2.47975       -0.87908
H          3.38412       -2.47983        0.87911
H         -1.66073       -1.87608       -0.00005
H          3.53644        0.89046        0.00007
H         -0.73511        2.98898        0.00002
H         -3.07592        2.18692        0.00005
C         -3.85816       -0.38962        0.00002
N         -4.94906       -0.77830        0.00003
Li         2.17870        4.35827        0.00031
Li         0.40687       -4.22600       -0.00007
