24
4055_b3lyp_2_Li.log	Energy: -427975.5218016
C          3.99483        0.22930       -0.00001
C          2.49122        0.32302       -0.00001
C          1.85930        1.58484        0.00004
C          0.47928        1.74811        0.00005
O         -0.09094        2.94193        0.00007
C         -0.31921        0.55250        0.00001
C         -1.72583        0.62235        0.00003
C         -2.51029       -0.52044       -0.00000
C         -1.88997       -1.80245       -0.00005
C         -0.52131       -1.89162       -0.00007
C          0.31012       -0.74004       -0.00004
C          1.73539       -0.85483       -0.00007
O          2.31923       -2.04667       -0.00003
H          4.45352        1.22068        0.00009
H          4.36006       -0.31418       -0.87946
H          4.36005       -0.31437        0.87932
H         -2.50743       -2.69275       -0.00007
H         -0.04167       -2.86245       -0.00010
H          2.47343        2.48101        0.00008
H         -2.19377        1.59806        0.00007
C         -3.93347       -0.40875        0.00001
N         -5.08808       -0.31746        0.00003
Li        -0.77119        4.40661        0.00010
Li         3.12638       -3.44259       -0.00004
