24
4055_b3lyp_4_Li.log	Energy: -427989.3107261
C         -0.71884        3.46700       -0.00016
C         -0.77743        1.96272       -0.00002
C         -2.01565        1.29311        0.00005
C         -2.13879       -0.09104        0.00008
O         -3.32031       -0.69416        0.00015
C         -0.92378       -0.85444       -0.00000
C         -0.95990       -2.26449       -0.00010
C          0.18660       -3.03398       -0.00018
C          1.44022       -2.40546       -0.00011
C          1.52180       -1.01601       -0.00002
C          0.35198       -0.18131       -0.00003
C          0.43136        1.24830       -0.00003
O          1.59256        1.86998       -0.00000
H         -1.72063        3.90324       -0.00006
H         -0.17641        3.83926       -0.87572
H         -0.17615        3.83942        0.87517
H         -2.92962        1.88103        0.00005
H         -1.93462       -2.73734       -0.00011
H          0.12701       -4.11608       -0.00028
H          2.35023       -2.99398       -0.00009
C          2.83473       -0.46471        0.00015
N          3.94024       -0.09681        0.00024
Li        -4.84202       -1.23179        0.00020
Li         3.27762        1.79758       -0.00008
