23
Li_130029656_b3lyp_prop_1.log	Energy: -404042.6218259
C          1.41655        2.62217       -0.00044
C          0.87931        1.21884       -0.00024
C          1.71737        0.08624       -0.00013
C          1.25397       -1.28298        0.00020
O          2.09965       -2.27906        0.00039
C         -0.14098       -1.44247        0.00022
C         -0.99134       -0.32829        0.00004
C         -0.51566        1.02565        0.00006
O         -1.35949        2.03641        0.00047
C          3.12907        0.14378       -0.00023
N          4.27633       -0.06691       -0.00025
H          2.50867        2.64407       -0.00264
H          1.05806        3.17155        0.87553
H          1.05438        3.17257       -0.87422
H         -0.54621       -2.44713        0.00036
C         -2.40858       -0.50782       -0.00022
C         -3.62137       -0.60565       -0.00079
C         -5.05332       -0.91550       -0.00009
H         -5.19681       -1.99636       -0.08365
H         -5.54261       -0.59082        0.92349
H         -5.57659       -0.45197       -0.84220
Li         3.83949       -2.07796        0.00030
Li        -3.04101        1.68591        0.00234
