32
Li_13182761_b3lyp_prop_4.log	Energy: -572212.7715814
C          4.70176       -1.02413       -0.00008
C          4.00327       -2.25863        0.00006
C          2.63081       -2.26714        0.00012
C          1.88060       -1.05947        0.00007
C          2.58496        0.19010       -0.00005
C          4.00825        0.15988       -0.00013
C          1.87574        1.42390       -0.00006
O          2.52581        2.57663       -0.00020
C          0.46482        1.38099        0.00000
C         -0.26267        0.11779        0.00006
C          0.45150       -1.11629        0.00014
O         -0.15194       -2.27343        0.00028
C         -1.69751        0.17133        0.00008
C         -2.36660        1.40459        0.00015
C         -1.63559        2.62825        0.00015
C         -0.27207        2.59860        0.00004
C         -3.79034        1.45939        0.00016
N         -4.94689        1.52763        0.00008
H         -2.18059        3.56392        0.00019
H          0.29094        3.52271       -0.00002
H          5.78693       -1.01978       -0.00013
H          4.55636       -3.19173        0.00011
H          2.07856       -3.19815        0.00022
H          4.53784        1.10448       -0.00023
C         -2.56959       -0.96821       -0.00006
C         -3.50448       -1.74520       -0.00017
C         -4.74660       -2.52005       -0.00038
H         -4.83576       -3.15561       -0.88680
H         -4.83612       -3.15544        0.88612
H         -5.59388       -1.82795       -0.00070
Li         3.41823        3.92392       -0.00030
Li        -1.65305       -2.99582        0.00008
