31
Li_18771_b3lyp_prop_2.log	Energy: -1081269.0483313
S          2.04361       -1.68018       -0.93689
S          2.60445        1.47441       -0.73936
O         -0.76626       -2.40274       -0.41459
O          0.20218        3.05194       -0.08154
N          4.77731       -2.86569        1.21161
N          5.53170        1.37909        1.47875
C         -1.63766       -0.16271       -0.20549
C         -1.38663        1.23896       -0.12115
C          0.69841       -0.54644       -0.64736
C          0.94580        0.84605       -0.56205
C         -0.55975       -1.11172       -0.43145
C         -0.04754        1.77914       -0.25524
C         -2.95341       -0.63761       -0.05164
C         -2.47411        2.10855        0.11453
C         -4.01509        0.23138        0.17765
C         -3.75428        1.62544        0.25914
C          3.35732       -1.03975        0.08357
C          3.59586        0.30320        0.16800
C          4.16457       -2.01717        0.71537
C          4.67549        0.86022        0.89619
H         -4.58000        2.30410        0.43739
H         -3.12173       -1.70433       -0.11701
H         -2.26953        3.16995        0.17668
C         -5.34637       -0.26130        0.33106
C         -6.47599       -0.66749        0.46223
C         -7.83704       -1.16227        0.61905
H         -8.50122       -0.74004       -0.14150
H         -7.87256       -2.25165        0.52604
H         -8.24372       -0.89690        1.59990
Li         0.50577       -3.54445       -0.19751
Li         1.78483        3.64616        0.25108
