27
Li_130412007_b3lyp_prop_5.log	Energy: -418628.2056604
C         -3.07333       -1.91616        0.42966
C         -1.69938       -2.04536       -0.24084
C         -0.86657       -0.78952       -0.10611
C         -1.50981        0.45909       -0.09135
C         -2.97216        0.49094       -0.14216
C         -3.72161       -0.59842        0.08919
C         -0.76850        1.67878       -0.03023
O         -1.38226        2.85849       -0.00453
C          0.62177        1.58710        0.01167
C          1.27328        0.33752       -0.00559
C          0.54238       -0.88964       -0.07487
O          1.17156       -2.04796       -0.11694
H         -3.71641       -2.75209        0.13550
H         -1.14028       -2.89201        0.16156
H         -2.96265       -1.98745        1.52320
H         -1.84503       -2.25563       -1.31173
H         -3.43958        1.44794       -0.34487
H         -4.80602       -0.53195        0.07917
H          1.20509        2.50027        0.06032
C          2.69238        0.25118        0.03359
C          3.90204        0.09767        0.06333
C          5.36673        0.11885        0.11271
H          5.79424        0.45997       -0.83588
H          5.71587        0.79597        0.89864
H          5.79469       -0.86589        0.32755
Li        -2.10162        4.29355        0.08047
Li         2.88908       -1.99205       -0.08572
