26
Li_130027375_b3lyp_prop_0.log	Energy: -428711.8576588
C          1.00863       -2.66378       -0.00013
C          0.25293       -1.36314       -0.00003
C          0.92989       -0.13045       -0.00001
C          0.19887        1.10017        0.00005
O          0.76765        2.26701        0.00001
C         -1.23217        0.97937        0.00003
C         -1.92070       -0.25512        0.00004
C         -1.16951       -1.43427        0.00004
O         -1.77376       -2.61885       -0.00006
C         -3.42248       -0.32342        0.00009
C         -1.85220        2.24342        0.00006
N         -2.12978        3.37829       -0.00009
H          0.74443       -3.26262        0.87887
H          2.08522       -2.50052       -0.00073
H          0.74346       -3.26303       -0.87855
H         -3.78897       -0.86623        0.87836
H         -3.87737        0.66960        0.00075
H         -3.78910       -0.86509       -0.87885
C          2.35413       -0.05432       -0.00010
C          3.55955        0.02735       -0.00011
C          5.01175        0.14561        0.00016
H          5.45340       -0.32856        0.88308
H          5.45352       -0.32616       -0.88400
H          5.31700        1.19669        0.00159
Li        -0.12377        3.78106       -0.00014
Li        -2.44170       -4.08638        0.00016
