25
Li_15736817_b3lyp_prop_2.log	Energy: -441180.6913692
C          4.45794       -1.23632       -0.00042
C          3.00820       -0.91718       -0.00030
C          1.88002       -1.66395       -0.00009
C          0.74677       -0.76720        0.00016
C          1.27800        0.51177        0.00008
O          2.67848        0.44853       -0.00019
C          0.60944        1.75209        0.00020
O          1.30067        2.88122        0.00025
C         -0.77977        1.59165        0.00026
C         -1.39378        0.30289        0.00023
C         -0.66472       -0.92885        0.00031
O         -1.25411       -2.09966        0.00056
H          4.96309       -0.83440        0.88552
H          4.96325       -0.83316       -0.88568
H          4.59289       -2.31873       -0.00116
H          1.84465       -2.74223       -0.00012
H         -1.40499        2.47714        0.00035
C         -2.81329        0.19440       -0.00011
C         -4.02050        0.02270       -0.00068
C         -5.48657        0.02318       -0.00024
H         -5.87974        0.48758        0.90969
H         -5.87647        0.58143       -0.85717
H         -5.90749       -0.98612       -0.05583
Li         2.97524        2.38662       -0.00005
Li        -2.98391       -2.04768        0.00109
