23
Li_11355645_b3lyp_prop_0.log	Energy: -438036.0167441
C          1.32980        0.27333        0.00002
C          0.70719        1.55340        0.00005
C         -0.67337        1.75714        0.00004
O         -1.26172        2.92966        0.00002
C         -1.46306        0.55475        0.00002
N         -2.81625        0.66527       -0.00004
C         -3.54628       -0.44455       -0.00007
C         -2.94797       -1.71807       -0.00001
N         -1.63089       -1.87021        0.00004
C         -0.84493       -0.75575        0.00003
C          0.57792       -0.92958        0.00002
O          1.09061       -2.12999        0.00001
H          1.34302        2.43108        0.00007
H         -4.62647       -0.34462       -0.00015
H         -3.56332       -2.61197       -0.00001
C          2.74992        0.19848        0.00002
C          3.95717        0.15028        0.00001
C          5.41095        0.07259       -0.00008
H          5.83537        0.56101        0.88326
H          5.74766       -0.96854       -0.00063
H          5.83533        0.56195       -0.88291
Li        -2.98581        2.66348       -0.00009
Li        -0.21979       -3.28474        0.00001
