31
Li_18771_b3lyp_prop_0.log	Energy: -1081271.9501924
S          1.36355       -1.86046       -0.63399
S          2.58375        1.18860       -0.91746
O         -1.47253       -1.87929       -0.28867
O          0.64096        3.23246       -0.03832
N          4.24026       -3.32292        1.05816
N          5.67440        0.66234        0.99551
C         -1.85727        0.48641        0.00144
C         -1.28814        1.79970        0.08452
C          0.34683       -0.40165       -0.46765
C          0.88263        0.90289       -0.45010
C         -1.01023       -0.65966       -0.26146
C          0.12796        2.03096       -0.12958
C         -3.27214        0.36497        0.20927
C         -2.10469        2.91272        0.36521
C         -4.03873        1.49669        0.49475
C         -3.45970        2.76820        0.57294
C          2.92494       -1.36204        0.01670
C          3.43979       -0.09715       -0.02578
C          3.66201       -2.43140        0.60129
C          4.67651        0.27779        0.54849
H         -1.62481        3.88195        0.41199
H         -5.10422        1.37801        0.65227
H         -4.08042        3.62896        0.79334
C         -4.03223       -0.85216        0.13468
C         -4.85531       -1.74699        0.10641
C         -5.94257       -2.72895        0.06113
H         -6.90669       -2.21305        0.03381
H         -5.89099       -3.36290       -0.82995
H         -5.94624       -3.37958        0.94137
Li        -2.87491       -2.76520       -0.08714
Li         2.35775        3.44954        0.04950
