22
Li_10986586_b3lyp_prop_2.log	Energy: -619167.5894191
C         -1.15731        2.40012        0.00007
C         -2.40128        1.75647        0.00019
C         -2.52989        0.36073        0.00014
O         -3.69477       -0.27764        0.00019
C         -1.31207       -0.33935        0.00002
C         -0.04245        0.27992       -0.00006
C          0.06301        1.70355       -0.00009
O          1.23216        2.31135       -0.00031
C          1.02108       -0.71068       -0.00016
C          0.55043       -2.00130       -0.00022
S         -1.18241       -2.09586       -0.00010
H          1.14371       -2.90313       -0.00028
H         -1.11166        3.48409        0.00008
H         -3.31199        2.34821        0.00030
C          2.42707       -0.46770       -0.00002
C          3.63820       -0.36010        0.00014
C          5.10293       -0.37124        0.00036
H          5.46474       -1.40354        0.00098
H          5.51992        0.11783       -0.88599
H          5.51967        0.11864        0.88638
Li        -5.07275       -1.10949        0.00011
Li         2.81833        1.77598       -0.00048
