28
Li_11805258_b3lyp_prop_0.log	Energy: -465856.8444881
C         -1.63733        2.62446       -0.00017
C         -0.65263        1.48576       -0.00008
C         -1.10110        0.12268       -0.00012
C         -0.23787       -1.02043       -0.00009
O         -0.69939       -2.24849       -0.00011
C          1.14856       -0.71141       -0.00002
C          1.52592        0.62149        0.00005
C          0.72167        1.77473        0.00003
O          1.28907        2.97459        0.00009
O          2.92032        0.72710        0.00009
C          3.39442       -0.59157        0.00010
C          2.37791       -1.48486       -0.00000
C          2.50327       -2.97615       -0.00003
H         -1.09608        3.57074       -0.00018
H         -2.28885        2.59598        0.88085
H         -2.28878        2.59588       -0.88122
H          4.46619       -0.69924        0.00010
H          2.00930       -3.40471       -0.87541
H          3.55146       -3.28554       -0.00099
H          2.01101       -3.40463        0.87635
C         -2.49719       -0.15693       -0.00012
C         -3.67761       -0.46423       -0.00012
C         -5.13462       -0.62792        0.00037
H         -5.57959       -0.17827        0.89369
H         -5.58239       -0.14724       -0.87519
H         -5.44076       -1.67910       -0.01795
Li        -2.42271       -2.39591        0.00009
Li         3.00876        2.67485        0.00011
