23
Li_141161619_b3lyp_prop_2.log	Energy: -440445.5314918
C         -0.01033        0.32524        0.00020
C         -1.29047       -0.29797        0.00022
C         -2.49683        0.43569       -0.00003
C         -2.33566        1.88792       -0.00005
C         -1.11020        2.47564       -0.00001
C          0.13816        1.71687        0.00007
C          0.97838       -0.74627        0.00002
C          0.32808       -1.96949       -0.00013
C         -1.10725       -1.73366        0.00005
O         -3.66614       -0.09351       -0.00013
O          1.27071        2.34917       -0.00002
O         -2.01869       -2.62151        0.00003
H          0.78975       -2.94588       -0.00033
H         -3.24337        2.48213       -0.00010
H         -1.01220        3.55648       -0.00004
C          2.38815       -0.59654        0.00005
C          3.60249       -0.50789       -0.00004
C          5.06556       -0.58297       -0.00001
H          5.37927       -1.63063       -0.00029
H          5.50175       -0.11133       -0.88608
H          5.50173       -0.11177        0.88627
Li        -3.67068       -1.89027       -0.00003
Li         2.83583        1.63973       -0.00019
