33
Li_12635763_b3lyp_prop_2.log	Energy: -562107.3430541
C          2.86595       -2.67263       -0.00102
C          2.17155       -1.67363       -0.00051
C          1.55828       -0.38296       -0.00026
C          0.13122       -0.15441       -0.00017
C         -0.33334        1.22225       -0.00008
C          0.62966        2.26721       -0.00010
C          1.97259        2.02574       -0.00015
C          2.46839        0.68766       -0.00021
C         -1.71031        1.54568        0.00004
O         -2.11638        2.80613        0.00007
C         -2.64839        0.47895        0.00009
C         -4.05074        0.72773        0.00022
C         -4.96287       -0.29696        0.00028
C         -4.51797       -1.64458        0.00021
C         -3.17376       -1.92164        0.00007
C         -2.20000       -0.88487        0.00001
C         -0.81044       -1.21968       -0.00014
O         -0.44409       -2.47585       -0.00004
H          3.58983       -3.45271       -0.00134
H         -4.38580        1.75785        0.00029
H         -6.02640       -0.08080        0.00039
H         -5.24274       -2.45187        0.00026
H         -2.81483       -2.94297        0.00001
H          0.26143        3.28528       -0.00004
H          2.68814        2.83872       -0.00013
C          3.87833        0.49407       -0.00017
C          5.08228        0.38937        0.00003
C          6.53183        0.24999        0.00079
H          6.97374        0.70678        0.89216
H          6.82713       -0.80356       -0.01463
H          6.97717        0.73365       -0.87453
Li        -2.74012        4.29472        0.00110
Li         0.85436       -3.51350        0.00016
