32
Li_12344381_b3lyp_prop_6.log	Energy: -572221.1182436
C         -4.93517       -0.32162        0.00029
C         -4.47846       -1.66482        0.00033
C         -3.13200       -1.93025        0.00017
C         -2.16761       -0.88526       -0.00005
C         -2.62783        0.47564       -0.00011
C         -4.03216        0.71115        0.00007
C         -1.70227        1.55593       -0.00037
O         -2.12071        2.81059        0.00006
C         -0.32261        1.24533       -0.00028
C          0.63964        2.29014       -0.00028
C          1.98772        2.05982       -0.00019
C          2.49072        0.72583       -0.00008
C          1.57472       -0.33396       -0.00008
C          0.14701       -0.12868       -0.00019
C         -0.77456       -1.21041       -0.00018
O         -0.38685       -2.45986       -0.00026
C          2.13032       -1.64431        0.00010
N          2.64621       -2.68819        0.00023
H         -6.00045       -0.11490        0.00043
H         -5.19608       -2.47833        0.00050
H         -2.76364       -2.94819        0.00022
H         -4.37712        1.73794        0.00004
H          0.26732        3.30704       -0.00036
H          2.69607        2.87864       -0.00020
C          3.89518        0.50524        0.00006
C          5.09140        0.33697        0.00016
C          6.52910        0.11134        0.00023
H          6.99880        0.55457       -0.88340
H          6.99855        0.55359        0.88449
H          6.75429       -0.95897       -0.00032
Li        -2.78278        4.28542        0.00045
Li         0.87629       -3.58819       -0.00014
