23
Li_152386883_b3lyp_prop_0.log	Energy: -404035.6066365
C          1.22131       -0.12602       -0.06422
C          0.23054       -1.11607       -0.20476
C         -1.12956       -0.79321       -0.28443
O         -2.07326       -1.71490       -0.39599
C         -1.45120        0.59345       -0.22769
C         -0.47809        1.57706       -0.08028
C          0.89446        1.26497        0.00674
O          1.82578        2.18316        0.14169
C         -2.90091        1.02115       -0.41405
C         -3.86341        0.19240        0.30758
N         -4.63540       -0.48096        0.84856
H          0.51212       -2.16199       -0.25121
H         -0.75328        2.62649       -0.03653
H         -3.04030        2.05690       -0.09290
H         -3.18919        0.96742       -1.47273
C          2.60058       -0.47579        0.01778
C          3.79521       -0.70236        0.09393
C          5.18309       -1.16657        0.17361
H          5.80910       -0.74261       -0.61816
H          5.64566       -0.92459        1.13594
H          5.21429       -2.25423        0.06270
Li        -3.57795       -2.13822        0.25389
Li         3.45031        1.61796        0.22019
