23
Li_141161619_b3lyp_prop_0.log	Energy: -440432.1447733
C         -1.56205        0.71060        0.00020
C         -0.99521       -0.59802        0.00003
C          0.38753       -0.85631       -0.00016
C          1.23808        0.34979       -0.00012
C          0.66525        1.60419        0.00007
C         -0.75739        1.84298        0.00023
C         -3.00906        0.55506        0.00035
C         -3.33328       -0.76911        0.00027
C         -2.08894       -1.55286       -0.00000
H          1.31027        2.47672        0.00012
H         -3.71014        1.37970        0.00052
O          0.90419       -2.03121       -0.00061
O         -1.20505        3.07817        0.00034
O         -1.99975       -2.81514       -0.00000
H         -4.32020       -1.20941        0.00037
C          2.65152        0.19119       -0.00026
C          3.85126        0.05025       -0.00019
C          5.29502       -0.13783        0.00041
H          5.74753        0.25714        0.91596
H          5.55085       -1.19956       -0.06663
H          5.76372        0.37306       -0.84699
Li        -0.26998       -3.37053       -0.00027
Li        -1.72788        4.61328       -0.00178
