32
Li_12344381_b3lyp_prop_1.log	Energy: -572222.1749263
C         -2.84758        1.65559       -0.00046
C         -3.03251        0.23515       -0.00046
C         -1.91497       -0.57868       -0.00025
C         -0.59932       -0.05165       -0.00018
C         -0.42069        1.37553       -0.00020
C         -1.58999        2.19136       -0.00032
C          0.87612        1.94938        0.00004
O          1.04491        3.26047        0.00017
C          1.99035        1.06859        0.00012
C          3.30837        1.59194        0.00028
C          4.42534        0.78997        0.00032
C          4.27649       -0.61160        0.00018
C          3.00952       -1.17373        0.00004
C          1.81016       -0.37071        0.00003
C          0.51459       -0.94811       -0.00006
O          0.33223       -2.24396       -0.00004
C          2.95473       -2.59625       -0.00009
N          2.98675       -3.76061       -0.00020
H         -2.02466       -1.65484       -0.00009
H         -1.46172        3.26691       -0.00021
H          3.41313        2.66981        0.00038
H          5.41844        1.22352        0.00045
H          5.14822       -1.25528        0.00019
H         -3.72176        2.29654       -0.00040
C         -4.35015       -0.31323       -0.00065
C         -5.47216       -0.76197       -0.00034
C         -6.82074       -1.31381        0.00120
H         -7.16244       -1.52899        1.01906
H         -7.53438       -0.61602       -0.44760
H         -6.86606       -2.24758       -0.56792
Li         1.07043        4.87840        0.00043
Li         0.98341       -3.80784        0.00000
