32
Li_12344381_b3lyp_prop_3.log	Energy: -572229.6614964
C          2.73382        2.12999        0.00019
C          1.73786        3.12616        0.00032
C          0.41531        2.76254        0.00030
C          0.01528        1.40184        0.00020
C          1.02068        0.36157        0.00018
C          2.40574        0.78057        0.00010
C          0.62586       -1.00549        0.00029
O          1.49208       -1.98816        0.00048
C         -0.77253       -1.29292        0.00022
C         -1.19217       -2.64555        0.00024
C         -2.52063       -3.00583        0.00013
C         -3.51195       -2.00598       -0.00001
C         -3.15090       -0.66725        0.00002
C         -1.76845       -0.24712        0.00014
C         -1.38532        1.11481        0.00017
O         -2.26632        2.08758        0.00032
C         -4.21675        0.27375       -0.00024
N         -5.13472        0.99123       -0.00073
H         -0.41457       -3.39908        0.00035
H         -2.81122       -4.04964        0.00012
H         -4.56163       -2.27598       -0.00012
H          3.77944        2.41517        0.00013
H          2.02603        4.17130        0.00041
H         -0.37078        3.50646        0.00037
C          3.54710       -0.09072       -0.00018
C          4.63126       -0.64400       -0.00041
C          5.99571       -1.18009       -0.00066
H          6.71730       -0.35790       -0.00043
H          6.20144       -1.79029        0.88501
H          6.20133       -1.78969       -0.88678
Li         3.13116       -2.27936       -0.00039
Li        -3.89442        2.55873       -0.00170
