28
Li_102182508_b3lyp_prop_1.log	Energy: -442525.6061234
C          3.13299       -0.67535       -0.41448
C          2.02457        0.12870       -0.41572
C          0.82752       -0.67347       -0.93720
C          1.42169       -2.05221       -1.09561
C          2.75369       -2.02429       -0.84032
C         -0.51526       -0.54066       -0.24129
C         -1.61210       -0.00583       -0.92918
C         -2.87531        0.12452       -0.33225
O         -3.91561        0.63318       -0.99572
C         -2.98985       -0.30993        1.00269
C         -1.90758       -0.84099        1.69464
C         -0.63252       -0.97611        1.10428
O          0.39577       -1.47882        1.76141
H          0.68724       -0.30498       -1.96804
H          0.84098       -2.90363       -1.42286
H          3.44499       -2.85114       -0.95195
H         -1.49772        0.32426       -1.95884
H         -3.95653       -0.22221        1.49095
H         -2.02096       -1.16850        2.72321
H          4.13944       -0.35338       -0.17777
C          1.96051        1.49837       -0.08986
C          1.86363        2.66979        0.18990
C          1.72355        4.07530        0.53665
H          2.34690        4.33270        1.39820
H          2.02348        4.71935       -0.29620
H          0.68526        4.31006        0.78794
Li        -5.20751        1.22878       -1.73431
Li         2.01168       -1.73022        1.35306
