27
Li_12913941_b3lyp_prop_0.log	Energy: -441919.6534972
C          1.06110       -0.67799       -0.67596
C          0.77834       -2.15259       -0.29068
O         -0.49798       -2.55193       -0.72641
C         -1.52815       -1.87255       -0.00548
C         -1.35626       -0.37448        0.00789
C         -0.12402        0.21758       -0.31194
C          0.01234        1.62734       -0.39720
O          1.15628        2.19332       -0.74925
C         -1.12837        2.39699       -0.09559
C         -2.33617        1.80830        0.25729
C         -2.48306        0.41339        0.31855
O         -3.64624       -0.15866        0.64272
H          1.20444       -0.64328       -1.76610
H          0.86510       -2.26579        0.80077
H          1.50362       -2.81507       -0.76732
H         -2.46523       -2.13713       -0.49832
H         -1.57105       -2.27735        1.02052
H         -1.03664        3.47681       -0.15276
H         -3.20085        2.42611        0.48276
C          2.34746       -0.31592       -0.05904
C          3.43282       -0.14555        0.45411
C          4.72157       -0.05983        1.14764
H          4.93202       -0.99842        1.66834
H          5.54746        0.12101        0.45332
H          4.72698        0.73741        1.89696
Li         2.77109        1.82974       -0.55683
Li        -5.10039       -0.72115        1.03274
