22
Li_15699186_b3lyp_prop_2.log	Energy: -416489.4165127
C         -1.39668        2.16580       -0.00005
C         -2.57581        1.39977       -0.00017
C         -2.59407       -0.00465       -0.00017
O         -3.69669       -0.74113       -0.00025
C         -1.30751       -0.56411        0.00004
C         -0.11758        0.17147        0.00015
C         -0.11426        1.59153        0.00010
O          1.01286        2.28039        0.00018
C          0.94694       -0.82006        0.00021
C          0.32838       -2.04097        0.00019
O         -1.02176       -1.92360        0.00010
H          0.72352       -3.04373        0.00040
H         -1.46378        3.24878       -0.00009
H         -3.53628        1.90654       -0.00030
C          2.35060       -0.61414        0.00009
C          3.55542       -0.45402       -0.00008
C          5.01846       -0.40274       -0.00039
H          5.42329       -1.41884       -0.00038
H          5.41305        0.10419       -0.88681
H          5.41344        0.10424        0.88584
Li        -4.89087       -1.81797        0.00005
Li         2.59359        1.68671        0.00045
