26
Li_15321799_b3lyp_prop_0.log	Energy: -394703.5695093
C         -1.53457       -0.00009        0.62826
C         -0.72273       -1.23298        0.12620
C          0.68641       -0.69896        0.04211
C          0.68637        0.69894        0.04210
C         -0.72280        1.23289        0.12627
C          1.87274        1.44407       -0.05622
O          1.86774        2.77713       -0.07109
C          3.06450        0.69767       -0.13748
C          3.06455       -0.69756       -0.13741
C          1.87283       -1.44403       -0.05607
O          1.86789       -2.77709       -0.07114
H         -1.46862       -0.00015        1.72320
H         -0.82640       -2.08802        0.80091
H         -1.08840       -1.55654       -0.85762
H         -1.08855        1.55651       -0.85749
H         -0.82646        2.08786        0.80107
H          4.00431        1.23866       -0.20378
H          4.00440       -1.23849       -0.20366
C         -2.94674       -0.00010        0.25778
C         -4.11296       -0.00004       -0.05044
C         -5.52305        0.00006       -0.42563
H         -6.16927       -0.06516        0.45544
H         -5.79054        0.91400       -0.96531
H         -5.76163       -0.84844       -1.07465
Li         1.83651        4.38057       -0.10616
Li         1.83642       -4.38050       -0.10624
