28
Li_102182508_b3lyp_prop_3.log	Energy: -442525.6061021
C         -2.75373       -2.02427       -0.84030
C         -1.42172       -2.05222       -1.09559
C         -0.82753       -0.67348       -0.93719
C         -2.02458        0.12872       -0.41574
C         -3.13301       -0.67531       -0.41448
C          0.51524       -0.54067       -0.24128
C          1.61208       -0.00586       -0.92918
C          2.87530        0.12448       -0.33225
O          3.91562        0.63308       -0.99575
C          2.98983       -0.30992        1.00270
C          1.90755       -0.84095        1.69466
C          0.63250       -0.97609        1.10430
O         -0.39579       -1.47879        1.76144
H         -4.13944       -0.35333       -0.17776
H          1.49771        0.32420       -1.95885
H          3.95651       -0.22219        1.49096
H          2.02093       -1.16843        2.72324
H         -3.44504       -2.85110       -0.95194
H         -0.84104       -2.90366       -1.42282
H         -0.68724       -0.30502       -1.96804
C         -1.96047        1.49839       -0.08990
C         -1.86357        2.66981        0.18988
C         -1.72344        4.07531        0.53664
H         -2.35059        4.33392        1.39506
H         -0.68606        4.30893        0.79273
H         -2.01857        4.71930       -0.29797
Li         5.20751        1.22866       -1.73435
Li        -2.01170       -1.73019        1.35307
