26
Li_11958_b3lyp_prop_0.log	Energy: -418005.0206195
C         -1.02982        2.63236        0.00026
C         -0.17920        1.38999        0.00009
C         -0.74442        0.08209       -0.00001
C          0.03469       -1.11215       -0.00016
O         -0.52026       -2.29881       -0.00051
C          1.44968       -0.93389       -0.00013
C          2.00371        0.33537       -0.00002
C          1.21214        1.51146        0.00004
O          1.80246        2.70659        0.00028
O          2.17979       -2.09619       -0.00016
C          3.58756       -1.99434       -0.00014
H         -2.09515        2.39527        0.00033
H         -0.82293        3.25469       -0.87909
H         -0.82277        3.25456        0.87965
H          3.07785        0.47367        0.00004
H          3.95915       -1.47412       -0.89253
H          3.95913       -1.47418        0.89229
H          3.96372       -3.01770       -0.00017
C         -2.15567       -0.11114        0.00009
C         -3.35118       -0.35418        0.00018
C         -4.81519       -0.43757        0.00024
H         -5.23698        0.05156       -0.88380
H         -5.17862       -1.47064       -0.00099
H         -5.23685        0.04945        0.88551
Li        -2.23308       -2.36891       -0.00076
Li         2.45429        4.17448        0.00053
