20
Li_10154120_b3lyp_0.log	Energy: -379364.9804968
C         -4.06284       -1.51340       -0.00031
C         -2.79560       -0.77926        0.00016
C         -1.67221       -0.30702       -0.00010
C         -0.39757        0.31472       -0.00019
C          0.81664       -0.44755       -0.00005
C          2.10785        0.16185       -0.00001
O          3.19925       -0.54589        0.00007
C          2.11260        1.59039        0.00001
C          0.95178        2.32436       -0.00011
C         -0.34922        1.72880       -0.00025
O         -1.43690        2.45660       -0.00031
H         -4.66866       -1.29490       -0.88552
H         -4.66703       -1.29886        0.88701
H         -3.86025       -2.58815       -0.00288
H          3.08007        2.08073        0.00010
H          0.98804        3.40876       -0.00011
C          0.89886       -1.84859       -0.00001
N          1.23408       -2.96808        0.00017
Li        -2.93358        1.58990        0.00228
Li         3.17648       -2.31071        0.00014
