21
Li_23115907_b3lyp_prop_2.log	Energy: -426570.3397159
C         -3.00845       -0.87286       -0.00002
C         -3.02680        0.53575       -0.00002
C         -1.88359        1.36436       -0.00001
O         -1.91912        2.68860        0.00001
C         -0.69996        0.61852       -0.00002
C         -0.66478       -0.77298       -0.00001
C         -1.80942       -1.61298       -0.00000
O         -1.66593       -2.91953        0.00003
N          0.66362       -1.19168       -0.00001
C          1.37181       -0.09091       -0.00000
O          0.62021        1.05183        0.00000
H         -3.94719       -1.41626       -0.00001
H         -3.98781        1.04190       -0.00003
C          2.77477        0.03461        0.00001
C          3.97720        0.14175       -0.00000
C          5.42568        0.26935       -0.00001
H          5.86292       -0.20299        0.88489
H          5.86292       -0.20300       -0.88489
H          5.72100        1.32231       -0.00001
Li        -1.82808        4.29621        0.00005
Li         0.10232       -3.11459        0.00001
