23
Li_212470_b3lyp_prop_2.log	Energy: -438028.5060989
C          3.26352        0.51402        0.00009
C          2.59832        1.75248        0.00014
C          1.20018        1.87041        0.00006
O          0.54053        3.00130        0.00026
C          0.49542        0.61668        0.00001
N         -0.87126        0.66073       -0.00001
C         -1.54850       -0.48136       -0.00004
N         -0.99426       -1.72507       -0.00007
C          0.32696       -1.77520       -0.00006
C          1.17031       -0.64817       -0.00003
C          2.59694       -0.71352       -0.00002
O          3.23095       -1.87622       -0.00005
H          0.77293       -2.76605       -0.00009
H          4.34948        0.49882        0.00015
H          3.17818        2.66964        0.00024
C         -2.97979       -0.40207       -0.00007
C         -4.18477       -0.33502       -0.00009
C         -5.63972       -0.28272       -0.00003
H         -6.01735        0.23098        0.88944
H         -6.01688        0.24966       -0.87862
H         -6.06404       -1.29062       -0.01074
Li        -1.17712        2.60015        0.00011
Li         4.14090       -3.21214       -0.00047
