29
Li_23162507_b3lyp_prop_2.log	Energy: -419381.5929666
C         -4.16524       -0.98177       -0.16877
C         -2.79915       -0.34780       -0.09358
C         -2.65365        1.04304       -0.10243
C         -1.40169        1.68545       -0.03657
O         -1.28819        3.01361       -0.06246
C         -0.28163        0.84652        0.05806
C         -0.41071       -0.54462        0.06877
C         -1.65685       -1.18150       -0.01524
O         -1.76496       -2.51100       -0.02005
C          0.94434       -1.20493        0.14764
C          1.87063       -0.04711        0.63086
C          1.17055        1.25140        0.12493
H         -4.35917       -1.62080        0.70108
H         -4.26296       -1.62230       -1.05370
H         -4.94987       -0.22219       -0.21293
H          1.27088       -1.57046       -0.83525
H          1.81603       -0.03199        1.72630
H          1.35930        2.09829        0.79156
H          1.55622        1.53179       -0.86453
H         -3.53988        1.66980       -0.16475
H          0.97541       -2.05914        0.83071
C          3.27280       -0.18089        0.24672
C          4.43026       -0.29219       -0.07426
C          5.82963       -0.42720       -0.46503
H          6.48837       -0.43253        0.40914
H          6.00075       -1.35862       -1.01394
H          6.14336        0.39896       -1.11088
Li        -1.12916        4.60861       -0.11144
Li        -1.86051       -4.11265       -0.04497
