27
Li_223813_b3lyp_prop_4.log	Energy: -418625.8229021
C         -1.60576       -2.12026       -0.00008
C         -3.09824       -1.98139       -0.00031
C         -3.72918       -0.80876       -0.00031
C         -3.02011        0.51449       -0.00001
C         -1.51137        0.42349        0.00003
C         -0.85802       -0.80738        0.00007
C          0.56150       -0.88202        0.00017
O          1.18984       -2.04085        0.00033
C          1.28058        0.34699        0.00015
C          0.60900        1.58847        0.00017
C         -0.78018        1.64972        0.00012
O         -1.42609        2.81542        0.00008
H         -1.28488       -2.71971       -0.86336
H         -3.34495        1.10872       -0.86735
H          1.17669        2.51268        0.00025
H         -1.28514       -2.71982        0.86321
H         -3.67736       -2.90212       -0.00050
H         -4.81667       -0.78167       -0.00049
H         -3.34500        1.10831        0.86761
C          2.70074        0.27510       -0.00008
C          3.91180        0.12889       -0.00044
C          5.37751        0.16007       -0.00014
H          5.76202        0.63739        0.90705
H          5.81927       -0.84065       -0.04956
H          5.75740        0.72084       -0.86021
Li         2.91021       -1.96546        0.00124
Li        -2.21054        4.21713        0.00007
