24
Li_388306_b3lyp_prop_4.log	Energy: -427959.7760448
C          0.94989       -1.77217        0.00001
C         -0.42436       -1.83165        0.00001
C         -1.20407       -0.65596       -0.00000
C         -0.48750        0.59226       -0.00001
C         -1.16860        1.86958        0.00001
O         -0.48178        2.98469        0.00003
C         -2.56611        1.79667       -0.00000
C         -3.26368        0.57554       -0.00001
C         -2.63185       -0.66736       -0.00000
O         -3.30598       -1.81321       -0.00000
N          0.87658        0.63041       -0.00002
C          1.58168       -0.50144       -0.00001
H          1.55879       -2.66722        0.00004
H         -0.93495       -2.78772        0.00004
H         -3.11808        2.73067       -0.00002
H         -4.34997        0.58907       -0.00002
C          3.00888       -0.39563       -0.00001
C          4.21508       -0.32577       -0.00001
C          5.66977       -0.24919        0.00001
H          6.03917        0.28273        0.88228
H          6.11284       -1.24919        0.00386
H          6.03957        0.27608       -0.88609
Li         1.22161        2.55428       -0.00002
Li        -4.30698       -3.07707        0.00000
