33
Li_346879_b3lyp_1.log	Energy: -549099.7204729
C         -4.78887       -1.66758       -0.00004
C         -3.46149       -0.94969        0.00003
C         -2.26030       -1.62248       -0.00002
C         -0.99574       -0.97639        0.00002
C         -0.94922        0.47218        0.00004
C         -2.22224        1.14920        0.00006
C         -3.42686        0.46588        0.00009
C          0.28411        1.17158        0.00006
O          0.33990        2.48222        0.00008
C          1.47724        0.38794        0.00002
C          1.43368       -1.04780       -0.00002
C          0.19571       -1.74455        0.00001
O          0.15605       -3.06712       -0.00000
C          2.67490       -1.74727       -0.00007
C          3.87480       -1.08704       -0.00006
C          3.92948        0.33811        0.00002
C          2.74531        1.03453        0.00005
C          5.26682        1.03620       -0.00002
H         -4.64959       -2.75080       -0.00044
H         -5.38597       -1.40747       -0.88087
H         -5.38575       -1.40810        0.88113
H         -4.35490        1.02788        0.00019
H          2.65124       -2.83046       -0.00013
H          4.80272       -1.65235       -0.00013
H          2.74457        2.11809        0.00013
H          5.85992        0.76287        0.88006
H          5.85906        0.76447       -0.88119
H          5.14686        2.12163        0.00102
H         -2.25521       -2.70651       -0.00009
C         -2.31111        2.57026       -0.00008
N         -2.46132        3.72552       -0.00021
Li        -0.47349        3.96531        0.00015
Li         0.28397       -4.67772        0.00007
