28
Li_4055_b3lyp_prop_0.log	Energy: -442560.7112891
C         -1.37339        2.60147       -0.00024
C         -0.52545        1.35622       -0.00027
C         -1.12314        0.04825       -0.00055
C         -0.35688       -1.14109       -0.00043
O         -0.91821       -2.32490       -0.00073
C          1.07730       -0.99767       -0.00041
C          1.90509       -2.14341       -0.00041
C          3.27881       -2.02913        0.00007
C          3.87369       -0.74943        0.00052
C          3.08697        0.38307        0.00046
C          1.67325        0.29951       -0.00009
C          0.85464        1.48747       -0.00040
O          1.42929        2.68640        0.00058
H         -2.43941        2.36902       -0.00224
H         -1.16066        3.22270       -0.87855
H         -1.16363        3.22095        0.87999
H          1.42037       -3.11204       -0.00060
H          3.90224       -2.91696        0.00035
H          4.95534       -0.65789        0.00112
H          3.54037        1.36663        0.00084
C         -2.53564       -0.11717       -0.00042
C         -3.73519       -0.34430        0.00031
C         -5.20041       -0.40960        0.00043
H         -5.61711        0.07354        0.89051
H         -5.61631        0.09254       -0.87910
H         -5.57555       -1.43871       -0.01113
Li        -2.64225       -2.35684        0.00299
Li         2.06488        4.16451       -0.00012
