27
Li_59350869_b3lyp_prop_1.log	Energy: -418620.1454820
C          2.01335       -2.74559       -0.05605
C          0.96766       -1.69552       -0.28578
C         -0.29597       -1.93992       -0.69332
C         -1.06514       -0.63879       -0.87187
C         -0.05157        0.40037       -0.41014
C          1.16382       -0.24712       -0.10712
C          2.29520        0.49443        0.28687
O          3.47040       -0.06141        0.57573
C          2.11049        1.89406        0.35738
C          0.89972        2.51584        0.06983
C         -0.24927        1.78351       -0.32083
O         -1.42024        2.35358       -0.56813
H          2.38038       -2.70639        0.97387
H          2.87643       -2.58195       -0.70825
H          1.61409       -3.74490       -0.24834
H         -1.28186       -0.48282       -1.94230
H          2.96439        2.49623        0.65598
H          0.81002        3.59505        0.14691
H         -0.72611       -2.90961       -0.90798
C         -2.35397       -0.61504       -0.16420
C         -3.42731       -0.59291        0.39914
C         -4.68809       -0.73621        1.13262
H         -4.73252       -0.07041        1.99958
H         -5.55457       -0.52640        0.49867
H         -4.79121       -1.76063        1.50195
Li         4.95350       -0.56522        0.93848
Li        -2.91150        1.59583       -0.28852
