27
Li_59350869_b3lyp_prop_0.log	Energy: -418620.9917230
C         -1.24124        2.31760       -0.00000
C         -0.69788        0.92155       -0.00000
C         -1.45884       -0.21343        0.00000
C         -0.56536       -1.44123        0.00001
C          0.81735       -0.85027        0.00002
C          0.72213        0.55856        0.00001
C          1.87964        1.37090       -0.00000
O          1.83189        2.69923        0.00000
C          3.11014        0.68285       -0.00001
C          3.19127       -0.70812        0.00001
C          2.04019       -1.52501        0.00004
O          2.11515       -2.85462       -0.00002
H         -0.89532        2.86818       -0.88112
H         -0.89495        2.86831        0.88088
H         -2.33322        2.30822        0.00021
H         -0.75002       -2.07360        0.87885
H         -0.75001       -2.07360       -0.87883
H          4.01968        1.27671       -0.00003
H          4.16339       -1.19297       -0.00001
C         -2.86966       -0.29412        0.00002
C         -4.07665       -0.40109        0.00001
C         -5.52923       -0.51976       -0.00001
H         -5.97171       -0.04652        0.88337
H         -5.97164       -0.04695       -0.88366
H         -5.83856       -1.56986        0.00021
Li         1.76964        4.30496       -0.00004
Li         2.13532       -4.46006       -0.00005
