30
Li_599944_b3lyp_prop_0.log	Energy: -443291.3415214
C         -1.35001       -0.42312        2.15682
C         -1.02706       -0.62455        0.64354
C         -0.83939       -2.11687        0.41273
C          0.31280       -2.67948        0.06418
C          1.57083       -1.91333       -0.18062
C          1.42735       -0.41542       -0.07749
C          0.21041        0.20678        0.25714
C          0.10841        1.62614        0.30851
O         -1.03763        2.24001        0.57510
C          1.27710        2.36688        0.05210
C          2.47887        1.74961       -0.26479
C          2.58329        0.35322       -0.34400
O          3.73876       -0.23900       -0.65752
H         -0.50735       -0.79567        2.74180
H         -2.24872       -0.97875        2.44367
H         -1.48711        0.63694        2.37383
H         -1.71922       -2.72933        0.59109
H          0.35992       -3.76141       -0.03955
H          2.34726       -2.26085        0.51789
H          1.97113       -2.17275       -1.17142
H          1.20608        3.44861        0.10311
H          3.36647        2.34379       -0.46292
C         -2.21739       -0.25693       -0.16418
C         -3.21843       -0.06377       -0.82188
C         -4.39414        0.00900       -1.69561
H         -4.25765        0.73697       -2.50106
H         -4.57515       -0.96361       -2.16260
H         -5.29894        0.28055       -1.14366
Li        -2.61744        1.93465        0.11950
Li         5.18356       -0.83524       -1.02271
