24
Li_56972288_b3lyp_prop_2.log	Energy: -417235.6598006
C         -3.70644       -2.22227        0.23265
C         -2.86231       -1.21096        0.52155
O         -2.52252       -0.27313       -0.37364
C         -1.25346        0.33260       -0.17939
C         -1.19661        1.71428       -0.11278
C          0.04911        2.36058        0.00803
O          0.13469        3.68545        0.07636
C          1.18890        1.54383        0.05417
C          1.12375        0.14050       -0.02285
C         -0.12918       -0.52418       -0.15250
O         -0.25996       -1.82797       -0.24941
H         -4.19393       -2.28248       -0.73503
H         -4.05031       -2.87111        1.02788
H         -2.41050       -1.09958        1.50619
H         -2.11015        2.29630       -0.15851
H          2.15989        2.01691        0.14982
C          2.32184       -0.63221        0.01724
C          3.34537       -1.27335        0.05426
C          4.57149       -2.05979        0.09496
H          5.22872       -1.82317       -0.74883
H          5.13740       -1.87461        1.01438
H          4.35266       -3.13162        0.05233
Li         0.32077        5.28076        0.14424
Li        -1.53617       -2.92067       -0.41981
