24
Li_57194585_b3lyp_prop_0.log	Energy: -417272.2181214
C          1.25569       -0.14196       -0.09998
C          0.30357       -1.16136       -0.25051
C         -1.06847       -0.88164       -0.38123
O         -1.96668       -1.83556       -0.49349
C         -1.42983        0.50374       -0.39307
C         -0.48197        1.51750       -0.23572
C          0.88912        1.24573       -0.08434
O          1.79765        2.18708        0.04979
C         -2.89824        0.85057       -0.59457
C         -3.56746        0.55032        0.70913
O         -4.17323       -0.49021        0.96485
H          0.61339       -2.20031       -0.25234
H         -0.78486        2.55995       -0.25525
H         -3.00256        1.91319       -0.82794
H         -3.33768        0.24552       -1.39347
H         -3.43964        1.29832        1.50961
C          2.64082       -0.44991        0.04327
C          3.83669       -0.64265        0.17066
C          5.23179       -1.06661        0.31764
H          5.29176       -2.15786        0.27488
H          5.87034       -0.67524       -0.48082
H          5.65964       -0.75518        1.27603
Li        -3.56685       -2.02689        0.06416
Li         3.43263        1.67316        0.19331
