33
Li_616789_b3lyp_2.log	Energy: -549078.9671685
C          1.96295        3.46104        0.84925
C          1.97995        2.64335       -0.46202
C          1.76247        1.15205       -0.25383
C          0.45436        0.53376       -0.12484
C          0.42077       -0.92274       -0.01481
C          1.63353       -1.64958        0.02666
C          2.85647       -1.02781       -0.06164
C          2.90393        0.39097       -0.22083
C         -0.79657       -1.65078        0.05582
O         -0.79939       -2.96635        0.15277
C         -2.01456       -0.92151        0.01675
C         -3.27252       -1.58628        0.06507
C         -4.45334       -0.88897        0.03496
C         -4.43655        0.52729       -0.04470
C         -3.24048        1.19917       -0.09086
C         -1.99629        0.50954       -0.06521
C         -0.77336        1.25227       -0.11559
O         -0.83677        2.56789       -0.13849
H          1.08686        3.22469        1.46672
H          2.02373        4.54641        0.66550
H          2.82822        3.21369        1.46685
H          2.95938        2.78483       -0.92780
H          3.87211        0.86582       -0.33421
H         -3.27466       -2.66751        0.12560
H         -5.40092       -1.41631        0.07125
H         -5.37195        1.07642       -0.07010
H         -3.21227        2.27915       -0.15287
H          1.24994        3.01647       -1.18680
H          1.57830       -2.72468        0.12625
C          4.06155       -1.78832       -0.01552
N          5.04329       -2.40225        0.02395
Li        -0.80741       -4.58283        0.25714
Li        -0.14802        4.05070        0.07484
