34
Li_6773_b3lyp_prop_0.log	Energy: -538987.8198500
C          3.95681        1.76885        0.00024
C          2.45681        1.59855        0.00010
C          1.85032        0.33904       -0.00003
C          0.40613        0.19112       -0.00013
C         -0.39118        1.40353       -0.00009
C          0.27347        2.65568       -0.00006
C          1.63857        2.75573        0.00003
C         -1.80975        1.37068       -0.00008
O         -2.51712        2.49084       -0.00014
C         -2.44806        0.10553        0.00002
C         -3.86878       -0.00939        0.00021
C         -4.49186       -1.23081        0.00033
C         -3.71868       -2.42242        0.00024
C         -2.34861       -2.35022        0.00004
C         -1.66694       -1.10067       -0.00006
C         -0.23962       -1.07455       -0.00023
O          0.42879       -2.20394       -0.00047
H          4.22102        2.82811        0.00073
H          4.41770        1.30740       -0.87945
H          4.41763        1.30659        0.87952
H         -0.33966        3.54814       -0.00008
H          2.11399        3.73117        0.00011
H         -4.45380        0.90258        0.00028
H         -5.57552       -1.29136        0.00049
H         -4.21539       -3.38710        0.00034
H         -1.74261       -3.24734       -0.00005
C          2.78014       -0.75313        0.00001
C          3.73662       -1.50808        0.00007
C          4.97562       -2.29169        0.00024
H          5.83992       -1.62020        0.00127
H          5.06306       -2.93110        0.88519
H          5.06417       -2.92978       -0.88554
Li        -3.51324        3.75901       -0.00028
Li         1.96324       -2.82530       -0.00080
