33
Li_616789_b3lyp_5.log	Energy: -549078.7150170
C         -3.98069       -2.03202        0.90602
C         -3.71046       -1.27548       -0.41473
C         -2.91703        0.01047       -0.23509
C         -1.47284        0.07342       -0.12813
C         -0.87648        1.39650       -0.02019
C         -1.71558        2.54582        0.02217
C         -3.07525        2.44489       -0.05627
C         -3.66586        1.16679       -0.19771
C          0.53051        1.58584        0.04288
O          1.05472        2.79377        0.13957
C          1.36043        0.43758       -0.00388
C          2.77062        0.55988        0.04264
C          3.59549       -0.54578        0.00584
C          3.02687       -1.85642       -0.08099
C          1.66766       -1.99817       -0.12586
C          0.78594       -0.87832       -0.09204
C         -0.62027       -1.07889       -0.13771
O         -1.08531       -2.31073       -0.17463
H         -3.06262       -2.18060        1.48833
H         -4.49016       -2.99557        0.74055
H         -4.64261       -1.44925        1.54912
H         -4.68027       -1.01879       -0.85089
H          3.68134       -2.71902       -0.11091
H          1.22156       -2.98179       -0.19262
H         -3.21506       -1.90756       -1.15953
H         -1.23586        3.51151        0.11305
H         -3.70234        3.32940       -0.02736
H         -4.74549        1.09633       -0.29400
H          3.20159        1.54985        0.10895
C          5.01237       -0.37677        0.05537
N          6.16152       -0.23881        0.09624
Li         1.82595        4.21372        0.25213
Li        -2.32880       -3.38148       -0.00270
