33
Li_616789_b3lyp_3.log	Energy: -549078.1746096
C         -2.97811       -2.34242        0.81627
C         -2.60028       -1.56450       -0.46559
C         -1.92378       -0.23021       -0.19015
C         -0.49614       -0.07310       -0.07210
C          0.02990        1.28613        0.03312
C         -0.88208        2.37923        0.11796
C         -2.22899        2.20325        0.07285
C         -2.75544        0.88452       -0.10264
C          1.41532        1.55633        0.06128
O          1.86991        2.79633        0.14983
C          2.31819        0.46060       -0.00689
C          3.72713        0.66487       -0.00656
C          4.60526       -0.38811       -0.05510
C          4.11643       -1.71879       -0.10393
C          2.76374       -1.95113       -0.10270
C          1.82423       -0.88355       -0.06059
C          0.42366       -1.17237       -0.06265
O          0.04077       -2.42749       -0.03465
H         -2.14311       -2.40077        1.52771
H         -3.36398       -3.34985        0.59031
H         -3.78182       -1.83315        1.34979
H         -3.52382       -1.38609       -1.02021
H          4.09356        1.68312        0.03257
H          5.67521       -0.20685       -0.05606
H          4.81377       -2.54887       -0.14318
H          2.37408       -2.96010       -0.14005
H         -1.95897       -2.14821       -1.13012
H         -0.46414        3.37172        0.22151
H         -2.91337        3.03968        0.14420
C         -4.17252        0.74373       -0.19252
N         -5.32635        0.64521       -0.24783
Li         2.49372        4.28269        0.24621
Li        -1.13621       -3.56756        0.20599
