37
Li_616789_b3lyp_prop_3.log	Energy: -563660.9894952
C          4.73774        0.81120        0.96808
C          4.25147        0.20762       -0.37042
C          3.05435       -0.71974       -0.22726
C          1.67721       -0.27385       -0.13478
C          0.65547       -1.29953       -0.04849
C          1.03199       -2.67121       -0.01781
C          2.34175       -3.05505       -0.08614
C          3.34741       -2.06571       -0.20247
C         -0.73846       -0.99967        0.00682
O         -1.61398       -1.97643        0.08787
C         -1.13445        0.36070       -0.02980
C         -2.51811        0.78566        0.00424
C         -2.84174        2.13580       -0.02016
C         -1.84113        3.12626       -0.08041
C         -0.52079        2.75427       -0.11735
C         -0.12355        1.39217       -0.09658
C          1.27164        1.09480       -0.13599
O          2.13203        2.09618       -0.15992
H          3.91976        1.28265        1.52791
H          5.56845        1.52309        0.83224
H          5.11862        0.02221        1.61882
H          4.02995        0.97628       -1.12102
H          5.08153       -0.36831       -0.78987
H         -3.88587        2.42598        0.00624
H         -2.12352        4.17301       -0.09919
H          0.26517        3.49639       -0.16619
H          0.23445       -3.39864        0.05548
H          2.61621       -4.10433       -0.06735
H          4.38431       -2.37923       -0.28763
C         -3.66168       -0.08067        0.05627
C         -4.74643       -0.63248        0.09599
C         -6.11246       -1.16355        0.13033
H         -6.83290       -0.34262        0.06617
H         -6.31714       -1.83766       -0.70831
H         -6.32345       -1.70633        1.05794
Li        -3.24493       -2.26501        0.15984
Li         3.69115        2.61080        0.00239
