26
Li_67210468_b3lyp_prop_1.log	Energy: -465085.9014116
C         -1.86127       -2.16823       -0.00001
C         -2.39262       -0.90847        0.00001
O         -1.33262        0.00615        0.00001
C         -0.13122       -0.69681       -0.00001
C         -0.45079       -2.04247       -0.00003
C          1.12555        0.01443        0.00000
C          2.30915       -0.77234        0.00001
C          3.58374       -0.21982        0.00000
O          4.68473       -0.96776        0.00001
C          3.66557        1.19678       -0.00001
C          2.53512        1.98585       -0.00001
C          1.22022        1.44739       -0.00001
O          0.18924        2.25314       -0.00000
H          0.25826       -2.85261       -0.00006
H          2.23419       -1.85409        0.00003
H          4.65150        1.65285       -0.00002
H          2.61490        3.06780       -0.00002
H         -2.43410       -3.08215       -0.00001
C         -3.68091       -0.35860        0.00003
C         -4.78257        0.14736        0.00002
C         -6.12183        0.71862       -0.00001
H         -6.29790        1.33789       -0.88536
H         -6.87058       -0.07900       -0.00133
H         -6.29884        1.33586        0.88657
Li         6.03322       -1.84095        0.00001
Li        -1.46557        1.86725        0.00002
