37
Li_73698_b3lyp_prop_2.log	Energy: -563656.6333075
C          4.43183        0.88594       -0.12266
C          3.33800       -0.16667       -0.05309
C          1.91548        0.10874       -0.00767
C          0.98412       -1.01955        0.02009
C          1.51640       -2.36740        0.03092
C          2.87673       -2.55070       -0.00043
C          3.77547       -1.46554       -0.04872
C          0.67369       -3.62558        0.07529
C         -0.43107       -0.79296        0.03755
O         -1.27973       -1.79467        0.06905
C         -0.92200        0.54210        0.02304
C         -2.33394        0.86376        0.01820
C         -2.75636        2.18748        0.03083
C         -1.83305        3.25118        0.04252
C         -0.48921        2.97721        0.03582
C          0.00161        1.64581        0.02271
C          1.40850        1.44054        0.01311
O          2.19751        2.50084        0.02644
H          4.32730        1.52515       -1.01084
H          5.40462        0.39622       -0.20926
H          4.47888        1.48759        0.79893
H          0.04007       -3.65759        0.96254
H          0.00783       -3.69823       -0.78556
H          1.33403       -4.49780        0.08334
H         -3.81973        2.39765        0.02760
H         -2.19245        4.27418        0.05279
H          0.24345        3.77322        0.04056
H          3.27635       -3.55938        0.00667
H          4.84098       -1.67190       -0.08597
C         -3.41952       -0.07524       -0.01915
C         -4.47133       -0.68814       -0.05816
C         -5.80434       -1.29375       -0.13555
H         -6.54990       -0.52736       -0.36804
H         -5.87168       -2.05484       -0.92039
H         -6.10155       -1.75929        0.81011
Li        -2.88165       -2.21012        0.10867
Li         3.70615        3.13667        0.02658
