33
Li_73698_b3lyp_2.log	Energy: -549089.4696746
C         -3.83575       -1.60308        0.00050
C         -2.96612       -0.35685        0.00009
C         -1.51721       -0.34926        0.00005
C         -0.82474        0.94076        0.00006
C         -1.60825        2.15851       -0.00012
C         -2.97838        2.07209       -0.00020
C         -3.64825        0.83244       -0.00007
C         -1.02290        3.55551       -0.00028
C          0.60881        0.99666        0.00025
O          1.26386        2.13475        0.00020
C          1.33421       -0.22160        0.00026
C          2.77766       -0.25963        0.00012
C          3.48175       -1.45492       -0.00001
C          2.79149       -2.68188       -0.00007
C          1.41580       -2.68430       -0.00009
C          0.65599       -1.48811        0.00008
C         -0.76337       -1.56299       -0.00003
O         -1.32875       -2.75415       -0.00054
H         -3.68509       -2.20503       -0.90810
H         -4.88882       -1.31306        0.00076
H         -3.68458       -2.20481        0.90914
H         -0.39593        3.73189        0.87470
H         -0.39647        3.73183       -0.87569
H         -1.83761        4.28510       -0.00010
H          4.56538       -1.43585       -0.00012
H          3.34792       -3.61172       -0.00011
H          0.86518       -3.61618       -0.00027
H         -3.56740        2.98316       -0.00025
H         -4.73396        0.82695       -0.00004
C          3.56870        0.92269       -0.00000
N          4.29634        1.83363       -0.00010
Li         2.69866        3.02766        0.00025
Li        -2.68553       -3.67722       -0.00019
