21
Li_86210053_b3lyp_prop_0.log	Energy: -437269.5811001
O          1.30019       -2.11435       -0.00005
O         -0.02721        3.25671        0.00001
N          4.19827       -1.01374        0.00003
N         -2.93360        2.17650       -0.00001
C          1.93048        0.18498        0.00001
C         -0.68124        0.95737       -0.00000
C          0.94219       -0.86858       -0.00003
C          0.31511        2.00051        0.00000
C         -0.41218       -0.43302       -0.00001
C          1.64894        1.55459        0.00002
C          3.24134       -0.35081        0.00002
C         -1.98889        1.49556       -0.00001
H          2.44505        2.28860        0.00004
C         -1.46808       -1.37882       -0.00001
C         -2.38156       -2.16929        0.00001
C         -3.47571       -3.12877        0.00003
H         -4.10541       -3.01075        0.88746
H         -4.11417       -3.00073       -0.87971
H         -3.09472       -4.15415       -0.00762
Li         2.96320       -2.68164       -0.00002
Li        -1.69311        3.82047       -0.00002
