25
Li_8718_b3lyp_prop_0.log	Energy: -370802.4274282
C         -0.05759       -2.59299       -0.00034
C         -0.48811       -1.15026       -0.00008
C          0.44855       -0.08177       -0.00043
C          0.05211        1.29207       -0.00032
O          0.94676        2.25963       -0.00037
C         -1.33978        1.56788        0.00003
C         -2.24161        0.51365        0.00033
C         -1.85602       -0.84564        0.00027
O         -2.77601       -1.81124        0.00035
C         -1.79029        3.00478        0.00016
H         -0.44645       -3.11937       -0.88014
H         -0.45035       -3.12068        0.87689
H          1.02905       -2.69396        0.00195
H         -3.30821        0.72482        0.00056
H         -2.88122        3.07482        0.00052
H         -1.40588        3.53906        0.87518
H         -1.40645        3.53909       -0.87509
C          1.85146       -0.32801       -0.00068
C          3.06509       -0.45402       -0.00128
C          4.48722       -0.81172        0.00173
H          4.77827       -1.27820        0.94861
H          4.71191       -1.51930       -0.80277
H          5.14023        0.05509       -0.14545
Li         2.59977        1.79598        0.00101
Li        -3.90412       -2.95345        0.00018
