25
Li_8530_b3lyp_prop_2.log	Energy: -417877.9343233
C         -0.40538        2.69787       -0.00019
C          0.86844        2.10939       -0.00024
C          1.02113        0.72353       -0.00013
C         -0.12819       -0.14179       -0.00003
C         -0.02772       -1.57926       -0.00010
O          1.13814       -2.18934       -0.00022
C         -1.22251       -2.29853       -0.00009
C         -2.48424       -1.68447        0.00005
C         -2.63120       -0.30477        0.00015
O         -3.82627        0.27810        0.00028
C         -1.43032        0.48516        0.00006
C         -1.52357        1.89533       -0.00001
H         -1.14793       -3.38108       -0.00019
H         -3.38080       -2.29754        0.00006
H         -2.51514        2.33062        0.00009
H         -0.49796        3.77846       -0.00027
H          1.75340        2.73522       -0.00036
C          2.39362        0.29629       -0.00002
C          3.60302        0.15725        0.00014
C          5.06886        0.13683        0.00034
H          5.45645        1.16002        0.00000
H          5.47623       -0.36221        0.88607
H          5.47649       -0.36282       -0.88491
Li         2.76635       -1.90785       -0.00024
Li        -5.34210        0.81864        0.00008
