18
10154120_b3lyp_1.log	Energy: -369804.6394038
C          4.98131       -0.34962        0.00039
C          3.52974       -0.30092        0.00006
C          2.32333       -0.25496       -0.00008
C          0.91228       -0.16778       -0.00027
C          0.10021       -1.25281       -0.00016
C         -1.36643       -1.16125       -0.00025
O         -2.07424       -2.15047       -0.00016
C         -1.96655        0.22022       -0.00006
C         -1.17732        1.31050       -0.00019
C          0.30292        1.21170       -0.00090
O          0.98249        2.21798        0.00006
H          5.35198       -0.85273        0.89833
H          5.40392        0.65804       -0.02699
H          5.35140       -0.90121       -0.86878
H         -1.58006        2.31669        0.00005
H          0.50185       -2.25893        0.00005
C         -3.39113        0.32534        0.00034
N         -4.54074        0.43078        0.00068
