22
102182508_b3lyp_0.log	Energy: -418411.6686072
C         -3.15403       -0.11790       -0.06583
C         -2.03650        0.64522        0.01409
C         -1.02534       -0.04514        0.92179
C         -1.72917       -1.34405        1.23999
C         -2.96059       -1.34387        0.69390
C          0.39129       -0.14277        0.40048
C          1.42751        0.42775        1.03968
C          2.82234        0.34481        0.54236
O          3.74162        0.85577        1.16027
C          3.05237       -0.38334       -0.72827
C          2.03506       -0.95815       -1.38056
C          0.64096       -0.89643       -0.87273
O         -0.26398       -1.44515       -1.47494
H         -4.05230        0.14556       -0.60767
H         -0.98307        0.53746        1.85403
H         -1.28709       -2.11590        1.85464
H         -3.70159       -2.12559        0.78978
H          1.29936        0.98644        1.96122
H          4.07633       -0.42119       -1.08278
H          2.16553       -1.50122       -2.31000
C         -1.81663        1.91100       -0.57450
N         -1.60311        2.94668       -1.04630
