22
102182508_b3lyp_3.log	Energy: -418409.5952632
C         -2.52323       -0.51657        1.30708
C         -1.25385       -0.92109        1.46972
C         -0.56863       -1.00529        0.12108
C         -1.62596       -0.48391       -0.82112
C         -2.75800       -0.24558       -0.12140
C          0.80204       -0.37182        0.02120
C          1.90815       -1.09284       -0.23608
C          3.26047       -0.49056       -0.31705
O          4.24196       -1.17630       -0.55180
C          3.37124        0.97195       -0.10010
C          2.28395        1.70960        0.15439
C          0.92666        1.11001        0.22716
O         -0.04782        1.80659        0.44324
H         -3.27383       -0.39899        2.07606
H          1.87134       -2.16579       -0.39616
H          4.36839        1.39344       -0.16119
H          2.32592        2.78114        0.31551
H         -0.77229       -1.19687        2.39732
H         -0.43937       -2.07461       -0.11012
H         -1.48920       -0.37177       -1.88703
C         -3.99745        0.19551       -0.66432
N         -5.01379        0.54780       -1.08703
