22
102182508_b3lyp_5.log	Energy: -418404.0387610
C          3.87202       -0.25437        0.73276
C          2.74561        0.32807        1.18242
C          1.93514        0.82007       -0.00010
C          2.74576        0.32782       -1.18240
C          3.87212       -0.25451       -0.73249
C          0.46822        0.46325       -0.00010
C         -0.49503        1.40522       -0.00009
C         -1.94103        1.10824       -0.00004
O         -2.77674        1.99018       -0.00004
C         -2.33585       -0.34239        0.00001
C         -1.39007       -1.29944       -0.00001
C          0.06282       -0.98004       -0.00008
O          0.87243       -1.88700       -0.00004
H          4.66457       -0.66164        1.34684
H         -1.63517       -2.35524        0.00003
H          2.44990        0.48186        2.21093
H          1.99370        1.91911       -0.00021
H          2.45018        0.48139       -2.21099
H          4.66474       -0.66190       -1.34638
H         -0.25555        2.46355       -0.00012
C         -3.72917       -0.65641        0.00007
N         -4.85159       -0.92654        0.00013
