26
102182508_b3lyp_prop_0.log	Energy: -432990.5044515
C          2.24732       -0.47839        0.10341
C          1.14888       -0.55616       -0.68703
C         -0.00356       -1.13034        0.10236
C          0.58667       -1.27437        1.49028
C          1.88340       -0.93068        1.46163
C         -1.31715       -0.38750        0.00384
C         -2.43084       -0.97217       -0.47751
C         -3.73069       -0.27337       -0.58734
O         -4.71926       -0.83902       -1.02835
C         -3.78584        1.13956       -0.14087
C         -2.69437        1.74473        0.34120
C         -1.38661        1.04494        0.45255
O         -0.41583        1.62994        0.89551
H          1.09017       -0.29520       -1.73405
H         -0.19095       -2.14659       -0.27851
H          0.02567       -1.64137        2.33867
H          2.58100       -0.96749        2.28744
H         -2.43343       -2.00372       -0.81529
H         -4.74585        1.63615       -0.22866
H         -2.69511        2.77581        0.67748
C          3.54664       -0.04776       -0.27050
C          4.66190        0.31306       -0.56022
C          6.00123        0.75606       -0.92018
H          6.01074        1.82466       -1.15582
H          6.70534        0.58715       -0.10046
H          6.37137        0.21749       -1.79779
