26
102182508_b3lyp_prop_4.log	Energy: -432990.5044521
C         -1.88325       -0.93121        1.46128
C         -0.58652       -1.27494        1.48967
C          0.00356       -1.13039        0.10175
C         -1.14895       -0.55595       -0.68733
C         -2.24733       -0.47855        0.10322
C          1.31716       -0.38746        0.00354
C          2.43099       -0.97206       -0.47759
C          3.73081       -0.27320       -0.58706
O          4.71956       -0.83878       -1.02777
C          3.78575        1.13976       -0.14065
C          2.69416        1.74488        0.34123
C          1.38650        1.04494        0.45254
O          0.41568        1.62971        0.89569
H          2.43364       -2.00358       -0.81545
H          4.74574        1.63640       -0.22833
H          2.69480        2.77596        0.67749
H         -2.58072       -0.96821        2.28718
H         -0.02543       -1.64227        2.33788
H          0.19102       -2.14646       -0.27958
H         -1.09035       -0.29469       -1.73427
C         -3.54671       -0.04783       -0.27047
C         -4.66202        0.31308       -0.55989
C         -6.00130        0.75640       -0.91959
H         -6.37284        0.21603       -1.79553
H         -6.70476        0.59011       -0.09875
H         -6.01010        1.82445       -1.15779
