26
102182508_b3lyp_prop_7.log	Energy: -432988.9816774
C          3.43574       -1.66107        0.73284
C          2.78379       -0.57291        1.18152
C          2.35602        0.27345       -0.00009
C          2.78384       -0.57315       -1.18149
C          3.43579       -1.66122       -0.73256
C          0.92788        0.76965       -0.00007
C          0.63143        2.08177       -0.00004
C         -0.75602        2.59526       -0.00003
O         -0.98052        3.79859        0.00006
C         -1.85006        1.61186       -0.00000
C         -1.61025        0.28058       -0.00000
C         -0.18604       -0.23638       -0.00010
O          0.03648       -1.42808       -0.00021
H          3.89354       -2.42555        1.34709
H          2.61185       -0.28741        2.21016
H          2.99641        1.16927       -0.00017
H          2.61194       -0.28788       -2.21021
H          3.89361       -2.42582       -1.34664
H          1.40558        2.84261       -0.00005
H         -2.85784        2.00981        0.00004
C         -2.64369       -0.68822        0.00004
C         -3.51136       -1.52735        0.00003
C         -4.54955       -2.54436        0.00007
H         -5.18745       -2.45015        0.88393
H         -5.18782       -2.44992       -0.88350
H         -4.11261       -3.54650       -0.00011
