19
102160488_b3lyp_2.log	Energy: -417056.3196244
C         -2.41823        1.14759       -0.00040
C         -3.07750       -0.24405        0.00133
C         -1.93078       -1.26698       -0.00018
O         -2.04699       -2.46400       -0.00126
C         -0.65527       -0.46834        0.00005
C         -0.94568        0.84928       -0.00013
C          0.11384        1.88978       -0.00025
O         -0.14830        3.07907       -0.00003
C          1.51563        1.40632       -0.00020
C          1.81312        0.09088       -0.00002
C          0.73535       -0.97837        0.00026
O          1.03039       -2.15050        0.00050
H         -2.68146        1.75049       -0.87444
H         -2.68165        1.75323        0.87164
H         -3.70122       -0.42025        0.88056
H         -3.70528       -0.42125       -0.87473
H          2.28549        2.16941       -0.00030
C          3.16853       -0.36015        0.00004
N          4.26989       -0.70627        0.00010
