29
10281_b3lyp_prop_1.log	Energy: -410623.0386213
C         -3.58607       -1.68230       -0.00013
C         -2.43255       -0.72690       -0.00001
C         -2.55899        0.60786       -0.00003
C         -1.40138        1.52432       -0.00003
O         -1.59474        2.73312        0.00002
C         -0.01372        0.95912       -0.00009
C          0.13548       -0.39589        0.00001
C         -1.06034       -1.31915        0.00008
O         -0.91706       -2.52750        0.00022
C          1.11718        1.97150       -0.00015
C          1.97391        1.89487        1.27892
C          1.97433        1.89438       -1.27889
H         -4.53594       -1.14631        0.00082
H         -3.54299       -2.33781        0.87391
H         -3.54401       -2.33628       -0.87539
H          0.62789        2.94712       -0.00041
H          2.51033        0.94750        1.35504
H          2.71003        2.70384        1.27503
H          1.35577        2.01112        2.17310
H          1.35650        2.01026       -2.17332
H          2.71043        2.70337       -1.27506
H          2.51082        0.94700       -1.35446
H         -3.52851        1.09543       -0.00005
C          1.38809       -1.06564        0.00004
C          2.40995       -1.70822        0.00001
C          3.64356       -2.47729        0.00002
H          4.25068       -2.24527       -0.88039
H          4.24453       -2.25485        0.88710
H          3.43229       -3.55004       -0.00645
