25
10281_b3lyp_0.log	Energy: -396041.9732377
C          3.14086        1.17057        0.16441
C          1.72802        0.70276        0.04867
C          1.34392       -0.59217       -0.05794
C         -0.09486       -1.00051       -0.18023
O         -0.38745       -2.17181       -0.32000
C         -1.14457        0.06980       -0.14069
C         -0.75062        1.35202       -0.04676
C          0.66146        1.76065        0.05167
O          0.97153        2.93767        0.13830
C         -2.58333       -0.39186       -0.20238
C         -3.01822       -0.95359        1.17075
C         -3.55554        0.68925       -0.68723
H          3.84672        0.34206        0.14097
H          3.27119        1.73349        1.09325
H          3.37006        1.86901       -0.64526
H         -1.45636        2.17443       -0.03479
H         -2.60648       -1.22696       -0.90977
H         -3.00445       -0.16797        1.93203
H         -4.03695       -1.34402        1.10456
H         -2.36808       -1.76705        1.49588
H         -3.25401        1.10200       -1.65345
H         -4.55366        0.26020       -0.80272
H         -3.63926        1.51454        0.02628
C          2.29919       -1.65692       -0.07391
N          3.08584       -2.50238       -0.08164
