29
10281_b3lyp_prop_0.log	Energy: -410625.1758037
C          2.08467        2.41777        0.17099
C          0.94523        1.45507        0.05350
C          1.08856        0.10541       -0.04281
C         -0.11228       -0.79771       -0.16778
O          0.03073       -1.99906       -0.29932
C         -1.48475       -0.18987       -0.14124
C         -1.59100        1.14599       -0.05752
C         -0.42275        2.04332        0.04339
O         -0.58121        3.25461        0.12225
C         -2.65408       -1.14891       -0.20096
C         -2.87161       -1.80717        1.17989
C         -3.94907       -0.50796       -0.71309
H          3.04247        1.90072        0.16032
H          1.99627        2.99844        1.09396
H          2.05370        3.14341       -0.64684
H         -2.54856        1.65412       -0.05439
H         -2.36166       -1.94625       -0.89145
H         -3.16064       -1.05835        1.92358
H         -3.67156       -2.54995        1.11751
H         -1.96961       -2.31327        1.52723
H         -3.80765       -0.03336       -1.68765
H         -4.72219       -1.27287       -0.82074
H         -4.33424        0.24613       -0.02005
C          2.35182       -0.54306       -0.04514
C          3.40972       -1.12450       -0.04734
C          4.67753       -1.83675       -0.05263
H          5.32934       -1.47233       -0.85227
H          5.20617       -1.70259        0.89599
H          4.52010       -2.90806       -0.20422
