19
10419488_b3lyp_1.log	Energy: -417056.7109644
C         -2.66812       -2.28800       -0.00017
C         -1.83607       -1.04236        0.00002
C         -2.36061        0.19971       -0.00003
C         -1.56141        1.45259        0.00009
O         -2.06753        2.55904        0.00006
C         -0.11235        1.21269        0.00005
C          0.47615       -0.01821        0.00014
C         -0.33953       -1.24870        0.00038
O          0.14894       -2.36092       -0.00005
C          1.89412        0.22184       -0.00001
C          2.02863        1.58692       -0.00016
O          0.82075        2.19396       -0.00011
H         -2.43831       -2.90277        0.87447
H         -2.43793       -2.90277       -0.87472
H         -3.73184       -2.04961       -0.00041
H          2.89260        2.23018       -0.00028
H         -3.43437        0.35526       -0.00018
C          2.96441       -0.70994        0.00001
N          3.86018       -1.43804        0.00001
