23
10419488_b3lyp_prop_2.log	Energy: -431643.1483686
C         -4.31704       -0.73265       -0.00004
C         -2.92277       -0.18281       -0.00002
C         -2.64631        1.13612       -0.00000
C         -1.27350        1.71666        0.00000
O         -1.07825        2.92015       -0.00001
C         -0.21970        0.70245        0.00004
C         -0.43837       -0.65111        0.00002
C         -1.80568       -1.19935        0.00001
O         -2.03903       -2.39479        0.00000
C          0.84144       -1.26860        0.00003
C          1.75447       -0.24077        0.00001
O          1.10008        0.97418        0.00003
H         -4.47966       -1.36854        0.87467
H         -4.47962       -1.36857       -0.87473
H         -5.05521        0.06986       -0.00007
H         -3.44051        1.87574       -0.00001
H          1.06631       -2.32228        0.00004
C          3.15897       -0.22444        0.00000
C          4.36601       -0.22162       -0.00001
C          5.81922       -0.21118       -0.00004
H          6.21530       -0.71720        0.88523
H          6.21527       -0.71716       -0.88535
H          6.19525        0.81554       -0.00002
