20
10986586_b3lyp_prop_3.log	Energy: -609640.6078935
C          3.26588        0.93519        0.00064
C          3.37692       -0.40059        0.00073
C          2.19209       -1.30790        0.00026
O          2.32100       -2.52224        0.00040
C          0.89507       -0.62560       -0.00029
C          0.75187        0.75022       -0.00033
C          1.94624        1.62712        0.00006
O          1.87078        2.84398       -0.00003
C         -0.59780        1.17124       -0.00064
C         -1.48132        0.10997       -0.00085
S         -0.63497       -1.43034       -0.00055
H          4.13307        1.58638        0.00098
H          4.33927       -0.90088        0.00117
H         -0.90804        2.20628       -0.00059
C         -2.88873        0.14869       -0.00100
C         -4.09650        0.17406       -0.00038
C         -5.55000        0.21064        0.00157
H         -5.94102        0.22154        1.02343
H         -5.91779        1.10466       -0.50979
H         -5.96256       -0.66471       -0.50794
