20
10986586_b3lyp_prop_2.log	Energy: -609637.3095689
C          1.35384        2.36236        0.00016
C          2.52684        1.71488        0.00020
C          2.61109        0.22967        0.00019
O          3.68380       -0.35356        0.00020
C          1.31538       -0.46098       -0.00005
C          0.09052        0.17768       -0.00002
C          0.03748        1.65897       -0.00018
O         -1.00171        2.29491       -0.00061
C         -1.01576       -0.74094       -0.00002
C         -0.56239       -2.04706       -0.00010
S          1.15383       -2.18188       -0.00015
H         -1.17362       -2.93670       -0.00012
H          1.29330        3.44521        0.00023
H          3.47807        2.23572        0.00032
C         -2.39189       -0.39898        0.00013
C         -3.56765       -0.13048        0.00022
C         -4.97426        0.23813        0.00022
H         -5.48523       -0.15691        0.88334
H         -5.08537        1.32609        0.00230
H         -5.48436       -0.15350       -0.88492
