24
11029986_b3lyp_prop_0.log	Energy: -385168.5270323
C          0.82071        3.34487        0.97231
C         -0.23253        2.73981        0.42985
C         -0.15771        1.78099       -0.73800
C         -0.63962        0.39944       -0.36897
C          0.19830       -0.64470       -0.11309
C         -0.34986       -1.99878        0.26286
O          0.38203       -2.94493        0.48429
C         -1.82157       -2.14717        0.35658
C         -2.64094       -1.12152        0.10693
C         -2.11385        0.21031       -0.27630
O         -2.88461        1.13005       -0.51353
H          1.82825        3.17831        0.60406
H          0.70971        4.03323        1.80268
H         -1.22867        2.92911        0.82034
H         -0.79653        2.16018       -1.54255
H          0.86743        1.72304       -1.10593
H         -2.17649       -3.13302        0.63561
H         -3.72082       -1.20173        0.16518
C          1.61096       -0.54557       -0.18173
C          2.81690       -0.50737       -0.22518
C          4.26929       -0.47346       -0.27295
H          4.66624        0.28318        0.41046
H          4.68905       -1.44235        0.01045
H          4.62186       -0.23198       -1.28021
