20
11029986_b3lyp_3.log	Energy: -370583.9160633
C          4.09141       -0.80602        1.01235
C          3.26335        0.08532        0.47538
C          2.43345       -0.16953       -0.76361
C          0.95095       -0.10970       -0.49026
C          0.16016       -1.19727       -0.45448
C         -1.28778       -1.14377       -0.17280
O         -1.97621       -2.14424       -0.14833
C         -1.88229        0.21571        0.08521
C         -1.10705        1.31530        0.04705
C          0.34514        1.23609       -0.24999
O          1.01173        2.25564       -0.30121
H          4.22195       -1.79724        0.58838
H          4.67638       -0.57184        1.89440
H          2.67552        0.59168       -1.51372
H         -1.50115        2.30922        0.22464
H          3.16026        1.07089        0.92014
H          2.68092       -1.14785       -1.18145
H          0.55054       -2.19405       -0.63131
C         -3.28077        0.28871        0.36618
N         -4.40971        0.36555        0.59501
