18
11040862_b3lyp_0.log	Energy: -393133.6935556
C         -2.72400       -0.32117        1.06387
C         -1.90442       -0.23081       -0.19180
O         -2.31530       -0.46328       -1.30169
C         -0.44876        0.20051       -0.04830
C          0.58226       -0.67215       -0.00844
C          2.00963       -0.19501        0.03367
O          2.93415       -0.97888        0.08465
C          2.23024        1.26966        0.00986
C          1.21097        2.13688       -0.01477
C         -0.19469        1.67563       -0.01351
O         -1.12613        2.45938        0.02716
H         -2.74543        0.65639        1.55507
H         -2.26798       -1.03215        1.76036
H         -3.73731       -0.63821        0.81994
H          3.26767        1.58421        0.01998
H          1.35478        3.21154       -0.02462
C          0.37599       -2.08645        0.01104
N          0.19473       -3.22599        0.04838
