22
11040862_b3lyp_prop_0.log	Energy: -407720.4604700
C          0.49457        2.74439        1.05089
C          0.26282        1.89406       -0.17142
O         -0.20024        2.31813       -1.20405
C          0.63931        0.42494       -0.06646
C         -0.30304       -0.55404       -0.00860
C          0.11977       -2.00569        0.05165
O         -0.69748       -2.90137        0.12748
C          1.57134       -2.30093        0.01269
C          2.48397       -1.32526       -0.04368
C          2.08693        0.10311       -0.06512
O          2.93405        0.98514       -0.08298
H          1.56026        2.74290        1.29554
H         -0.04218        2.32287        1.90705
H          0.15575        3.76261        0.86173
H          1.83496       -3.35241        0.03623
H          3.55081       -1.51785       -0.07139
C         -1.69355       -0.29727        0.01655
C         -2.88538       -0.10610        0.03442
C         -4.31814        0.12984        0.04100
H         -4.58726        0.89999       -0.68748
H         -4.86438       -0.78498       -0.20363
H         -4.65024        0.46935        1.02684
