16
11122_b3lyp_0.log	Energy: -322008.4825340
C          0.49522        2.35727        0.00004
C          0.41775        0.86611        0.00001
C         -0.73550        0.15075       -0.00002
C         -0.74763       -1.35019       -0.00011
O         -1.78960       -1.97475        0.00000
C          0.56415       -2.03792        0.00003
C          1.71208       -1.35150        0.00007
C          1.72842        0.12854        0.00013
O          2.77980        0.74384       -0.00016
H          1.05553        2.70147        0.87403
H         -0.49235        2.81529       -0.00066
H          1.05686        2.70148       -0.87307
H          0.52487       -3.12131        0.00004
H          2.68392       -1.83221        0.00010
C         -2.01408        0.79071       -0.00002
N         -3.03900        1.32286        0.00000
