22
11228886_b3lyp_2.log	Energy: -371358.9275291
C         -3.16004        0.11170       -1.27570
C         -2.46806        0.63310        0.00003
C         -3.16005        0.11155        1.27569
C         -0.97925        0.35116       -0.00001
C         -0.06866        1.34428        0.00003
C          1.39185        1.13437        0.00002
O          2.17526        2.06327        0.00001
C          1.87263       -0.29067       -0.00002
C          0.98401       -1.30078       -0.00005
C         -0.48393       -1.06316       -0.00003
O         -1.23711       -2.02203       -0.00001
H         -3.14413       -0.97787       -1.31860
H         -2.67978        0.50335       -2.17640
H         -4.20304        0.43928       -1.28390
H         -3.14414       -0.97802        1.31847
H         -2.67981        0.50310        2.17644
H         -4.20305        0.43913        1.28392
H          1.28899       -2.34091       -0.00007
H         -2.55977        1.72478        0.00010
H         -0.37037        2.38690        0.00007
C          3.28187       -0.52261       -0.00000
N          4.41823       -0.72619        0.00002
