19
12078641_b3lyp_1.log	Energy: -417055.4331217
C          2.45080       -2.36233        0.00023
C          2.04593       -0.92256        0.00004
C          2.86340        0.17302       -0.00035
O          2.15544        1.34046        0.00008
C          0.85471        0.99520       -0.00002
C          0.72042       -0.37134       -0.00003
C         -0.60331       -1.00469       -0.00004
O         -0.78568       -2.20424       -0.00011
C         -1.76898       -0.03129       -0.00002
C         -1.59096        1.30659        0.00000
C         -0.24298        1.95505        0.00005
O         -0.12276        3.16617        0.00009
H          3.53781       -2.45966        0.00004
H          2.05470       -2.87944       -0.87682
H          2.05503       -2.87918        0.87758
H         -2.43188        1.99057        0.00003
H          3.93549        0.28146       -0.00052
C         -3.08014       -0.59912       -0.00001
N         -4.14580       -1.04344        0.00000
