19
12078641_b3lyp_2.log	Energy: -417055.1524197
C         -3.61713        0.70980        0.00023
C         -2.40598       -0.16797        0.00003
C         -2.36649       -1.53434       -0.00047
O         -1.08730       -2.01004        0.00006
C         -0.28181       -0.93120        0.00006
C         -1.02516        0.22326        0.00001
C         -0.36141        1.53255        0.00006
O         -0.95110        2.59893       -0.00013
C          1.13371        1.49327       -0.00003
C          1.83951        0.34286        0.00001
C          1.17352       -1.02229        0.00020
O          1.81378       -2.05124        0.00013
H         -4.53017        0.11191       -0.00006
H         -3.62758        1.36101       -0.87693
H         -3.62776        1.36045        0.87780
H         -3.13952       -2.28510       -0.00072
H          1.62547        2.45923       -0.00012
C          3.26806        0.35537       -0.00005
N          4.42223        0.38334       -0.00009
