16
12209139_b3lyp_0.log	Energy: -392375.3058673
C          0.99482        1.43126       -0.00004
C          1.54413        0.19483       -0.00003
C          0.71960       -1.07668        0.00016
O          1.24387       -2.17047        0.00014
C         -0.72641       -0.84004        0.00017
C         -1.77131       -1.71391        0.00025
O         -2.94225       -1.02492       -0.00060
C         -2.65347        0.30329        0.00009
C         -1.30278        0.47783        0.00015
C         -0.47556        1.68786        0.00011
O         -0.90783        2.82679        0.00007
H          1.61850        2.31837       -0.00013
H         -1.84211       -2.78816        0.00030
H         -3.49101        0.97966        0.00001
C          2.96513        0.03333       -0.00013
N          4.11420       -0.07826       -0.00020
