30
12344381_b3lyp_prop_0.log	Energy: -562694.7753891
C         -3.09620       -0.38072       -0.00094
C         -2.60174       -1.70212       -0.00091
C         -1.23893       -1.94774       -0.00104
C         -0.32674       -0.88631       -0.00107
C         -0.80797        0.43410       -0.00116
C         -2.18021        0.68053       -0.00115
C          0.13244        1.58709       -0.00117
O         -0.26591        2.73898       -0.00162
C          1.60083        1.28688       -0.00037
C          2.48787        2.36662        0.00020
C          3.85831        2.14500        0.00110
C          4.35102        0.84421        0.00144
C          3.47625       -0.25168        0.00081
C          2.08146       -0.03431       -0.00012
C          1.12912       -1.18939       -0.00088
O          1.53680       -2.33693       -0.00121
C          4.08852       -1.54927        0.00128
N          4.73438       -2.50723        0.00183
H         -3.30421       -2.52662       -0.00069
H         -0.85508       -2.96034       -0.00099
H         -2.52724        1.70564       -0.00116
H          2.07681        3.36833       -0.00004
H          4.54760        2.98100        0.00158
H          5.41826        0.66047        0.00218
C         -4.49892       -0.13250       -0.00048
C         -5.68877        0.07098        0.00044
C         -7.12276        0.31810        0.00302
H         -7.55860        0.07280        0.97618
H         -7.34038        1.36838       -0.20894
H         -7.62631       -0.29219       -0.75225
