27
12506460_b3lyp_0.log	Energy: -538005.1395164
C         -2.51471       -3.93403        0.00037
C         -2.20315       -2.77030        0.00008
C         -2.03939       -1.35499        0.00002
C         -0.79159       -0.68280       -0.00009
C         -0.75052        0.72738       -0.00010
C         -1.94937        1.46800        0.00002
C         -3.17734        0.79118        0.00014
C         -3.21866       -0.58925        0.00015
C          0.55802        1.46301       -0.00023
O          0.58335        2.67975       -0.00023
C          1.81067        0.66669       -0.00002
C          3.04057        1.33385        0.00015
C          4.22363        0.60637        0.00029
C          4.18799       -0.79177        0.00025
C          2.97003       -1.45991        0.00007
C          1.77390       -0.73448       -0.00005
C          0.48183       -1.47549       -0.00022
O          0.46597       -2.69258       -0.00069
H         -2.72506       -4.97588        0.00052
H         -4.09547        1.36517        0.00023
H         -4.17122       -1.10347        0.00026
H          3.04336        2.41664        0.00015
H          5.17598        1.12400        0.00043
H          5.11321       -1.35659        0.00036
H          2.92007       -2.54145        0.00002
C         -2.02317        2.89988        0.00002
N         -2.27539        4.02773        0.00005
