22
12587549_b3lyp_2.log	Energy: -441738.6151448
C          2.97082        0.54294        0.54919
C          1.92373        1.48198       -0.06984
C          0.54302        0.88372       -0.04350
C          0.33331       -0.45071       -0.00620
C          1.45272       -1.45775       -0.02520
C          2.85607       -0.86190       -0.00546
O          3.80757       -1.49847       -0.39384
C         -1.04482       -1.01722        0.03205
O         -1.23824       -2.21455        0.09221
C         -2.20011       -0.05523       -0.00559
C         -1.98450        1.27098       -0.05945
C         -0.60991        1.82767       -0.07491
O         -0.44626        3.03560       -0.11349
H          2.79962        0.48139        1.63210
H          3.98656        0.90572        0.39030
H          2.18869        1.71105       -1.10997
H          1.36591       -2.11232       -0.89765
H         -2.79295        1.99212       -0.08789
H          1.90986        2.44450        0.44479
H          1.35939       -2.13177        0.83591
C         -3.51819       -0.60545        0.01826
N         -4.59065       -1.03221        0.03676
