31
12635763_b3lyp_prop_4.log	Energy: -552592.3200914
C          4.78594       -2.50767        0.00166
C          4.11577       -1.50664        0.00113
C          3.48604       -0.22635        0.00069
C          2.08382       -0.01911       -0.00008
C          1.58661        1.30084       -0.00030
C          2.45642        2.39231        0.00011
C          3.83018        2.18655        0.00082
C          4.33721        0.89394        0.00113
C          0.11796        1.59312       -0.00088
O         -0.29162        2.74218       -0.00125
C         -0.81715        0.43635       -0.00095
C         -2.19144        0.67441       -0.00096
C         -3.10010       -0.39213       -0.00089
C         -2.59616       -1.70990       -0.00097
C         -1.23154       -1.94559       -0.00104
C         -0.32584       -0.87853       -0.00095
C          1.13645       -1.17531       -0.00071
O          1.53117       -2.32844       -0.00095
H          5.32266       -3.42468        0.00209
H         -3.29293       -2.53938       -0.00088
H         -0.84021       -2.95524       -0.00105
H          2.03205        3.38822       -0.00010
H          4.50910        3.03148        0.00115
H          5.40702        0.72562        0.00173
H         -2.54396        1.69767       -0.00089
C         -4.50529       -0.15364       -0.00053
C         -5.69627        0.04285        0.00032
C         -7.13180        0.28260        0.00275
H         -7.56767        0.03413        0.97516
H         -7.35473        1.33214       -0.20783
H         -7.63255       -0.32849       -0.75386
