31
12635763_b3lyp_prop_1.log	Energy: -552592.1194691
C          0.96769        4.30390        0.00025
C          0.92907        3.10010        0.00010
C          1.06614        1.67931        0.00009
C         -0.02109        0.76855        0.00013
C          0.25584       -0.61491        0.00022
C          1.56442       -1.08693        0.00016
C          2.64504       -0.19516       -0.00002
C          2.37657        1.17988        0.00008
C         -0.83832       -1.63961        0.00035
O         -0.58016       -2.83196        0.00046
C         -2.24126       -1.15095        0.00013
C         -3.28971       -2.07740        0.00003
C         -4.60698       -1.63729       -0.00021
C         -4.88707       -0.26727       -0.00036
C         -3.85060        0.65822       -0.00026
C         -2.52094        0.22448       -0.00001
C         -1.43192        1.25063        0.00011
O         -1.70798        2.43779       -0.00016
H          0.93958        5.36605        0.00048
H          3.19944        1.88274        0.00015
H         -3.04694       -3.13275        0.00015
H         -5.41808       -2.35653       -0.00029
H         -5.91582        0.07490       -0.00056
H         -4.04532        1.72333       -0.00037
H          1.72991       -2.15609        0.00027
C          3.98759       -0.67380       -0.00052
C          5.12237       -1.08465       -0.00095
C          6.48883       -1.58510       -0.00044
H          6.85523       -1.71729        1.02212
H          6.55121       -2.55249       -0.50663
H          7.16174       -0.89049       -0.51095
