16
12838779_b3lyp_0.log	Energy: -415658.6294137
C          2.90559       -0.96093        0.10600
O          2.57325        0.43612       -0.05052
C          1.21712        0.47744       -0.00372
C          0.69680       -0.76373       -0.00808
O          1.67689       -1.70206       -0.05850
C         -0.73678       -1.05578       -0.01542
O         -1.20912       -2.16977       -0.04143
C         -1.60207        0.19421        0.00654
C         -1.07199        1.43364        0.01080
C          0.40269        1.69223       -0.00511
O          0.84998        2.82235       -0.02201
H          3.29514       -1.12822        1.11480
H          3.61391       -1.25530       -0.66638
H         -1.69500        2.32017        0.02362
C         -3.01489       -0.00819        0.02081
N         -4.16012       -0.15471        0.03384
