21
12913941_b3lyp_0.log	Energy: -417809.4309331
C          1.17351        1.02702       -0.05546
C          2.07325       -0.14843        0.35506
O          1.73290       -1.32107       -0.37652
C          0.43835       -1.80794       -0.04626
C         -0.60271       -0.72001       -0.02226
C         -0.26384        0.58416       -0.03748
C         -1.31713        1.64151       -0.03032
O         -1.02129        2.82462       -0.03578
C         -2.73660        1.20878       -0.00914
C         -3.06811       -0.08710        0.02580
C         -2.02864       -1.14512        0.03126
O         -2.32979       -2.32725        0.07478
H          1.31300        1.87732        0.61679
H          1.44727        1.37434       -1.05674
H          1.95561       -0.33718        1.43304
H          0.19099       -2.55365       -0.80265
H          0.45695       -2.32713        0.92367
H         -3.47280        2.00479       -0.01467
H         -4.09571       -0.43232        0.05109
C          3.49105        0.13948        0.11279
N          4.59933        0.40419       -0.05633
