25
12913941_b3lyp_prop_0.log	Energy: -432388.1501949
C         -1.05180        0.71566       -0.70539
C         -0.84112        2.18869       -0.27781
O          0.46057        2.64418       -0.60231
C          1.45056        1.98427        0.16541
C          1.31454        0.48585        0.08568
C          0.18471       -0.10147       -0.35801
C          0.15911       -1.57355       -0.60725
O         -0.75148       -2.10259       -1.22044
C          1.31377       -2.37900       -0.13091
C          2.40186       -1.79865        0.38632
C          2.49159       -0.32434        0.50788
O          3.49719        0.21174        0.94755
H         -1.17949        0.67714       -1.79472
H         -1.01845        2.28204        0.80204
H         -1.54537        2.83493       -0.80082
H          2.42094        2.28820       -0.22931
H          1.41125        2.31282        1.21576
H          1.22386       -3.45169       -0.26228
H          3.26804       -2.35799        0.72212
C         -2.26749        0.19889       -0.07280
C         -3.27792       -0.15761        0.47610
C         -4.50089       -0.62885        1.11383
H         -4.56203       -0.29382        2.15320
H         -5.38497       -0.25583        0.58881
H         -4.54561       -1.72178        1.10858
