18
129814774_b3lyp_0.log	Energy: -437780.8058525
C          2.08959        1.15101        0.22297
C          1.98368       -0.15970       -0.06931
C          0.64456       -0.79202       -0.31299
O          0.53962       -1.95586       -0.63638
C         -0.55786        0.08228       -0.16438
C         -0.43934        1.38692        0.11354
C          0.88928        2.01602        0.32463
O          0.99223        3.20087        0.57837
C         -1.89599       -0.63747       -0.36045
C         -2.27633       -1.35183        0.87065
N         -2.55094       -1.90496        1.84231
C         -2.96476        0.27207       -0.78835
N         -3.78592        0.99989       -1.13663
H          3.04637        1.63104        0.39176
H         -1.29506        2.04841        0.20038
H         -1.75364       -1.39739       -1.13882
C          3.13101       -1.00318       -0.18041
N          4.06894       -1.67018       -0.26636
