22
129814774_b3lyp_prop_1.log	Energy: -452368.6594992
C          1.28597        1.74989        0.24868
C          1.53448        0.44370       -0.01124
C          0.38493       -0.49581       -0.26760
O          0.55994       -1.65785       -0.57420
C         -1.00077        0.05578       -0.15601
C         -1.21328        1.35316        0.09123
C         -0.07913        2.29329        0.30590
O         -0.29281        3.47382        0.52931
C         -2.11420       -0.97720       -0.35635
C         -2.34413       -1.73658        0.88513
N         -2.50425       -2.32299        1.86304
C         -3.36342       -0.37696       -0.83764
N         -4.33175        0.10694       -1.22988
H         -2.20615        1.78706        0.14977
H         -1.76330       -1.69699       -1.10617
H          2.08943        2.45472        0.42506
C          2.83662       -0.10435       -0.07318
C          3.93771       -0.59653       -0.12633
C          5.26033       -1.19323       -0.18982
H          5.86107       -0.72289       -0.97379
H          5.78922       -1.06526        0.75919
H          5.19407       -2.26306       -0.40370
