21
130412007_b3lyp_2.log	Energy: -394517.0302526
C         -1.73560       -1.50171        0.35862
C         -0.37185       -1.85570       -0.24497
C          0.62804       -0.74335       -0.07668
C          0.21434        0.54989       -0.06139
C         -1.20071        0.88116       -0.15221
C         -2.13676       -0.07451        0.02701
C          1.19926        1.67264        0.01472
O          0.83748        2.83663       -0.00273
C          2.63700        1.32036        0.10059
C          3.04273        0.04526        0.08310
C          2.07487       -1.07683       -0.01321
O          2.46255       -2.23504       -0.03955
H         -1.71061       -1.59943        1.45254
H         -2.49598       -2.20049        0.00530
H          0.02106       -2.77662        0.18812
H          3.32472        2.15578        0.16894
H          4.08797       -0.23828        0.13794
H         -0.47645       -2.04868       -1.32242
H         -1.46997        1.91542       -0.32492
C         -3.52553        0.24423       -0.00425
N         -4.66224        0.45871       -0.02218
