21
130412007_b3lyp_1.log	Energy: -394511.1733980
C          0.54023        2.61278        0.50448
C         -0.70021        2.12227       -0.24838
C         -0.87162        0.63440       -0.09737
C          0.20771       -0.18061        0.01162
C          1.56569        0.40690       -0.00520
C          1.72105        1.72736        0.23511
C          0.02604       -1.65381        0.19664
O          0.96587       -2.39007        0.43268
C         -1.35324       -2.19550        0.11330
C         -2.41257       -1.39383       -0.03724
C         -2.25155        0.07577       -0.13650
O         -3.22396        0.80534       -0.25668
H          0.35126        2.62185        1.58883
H          0.77066        3.64452        0.22925
H         -1.60309        2.63299        0.08786
H          2.71985        2.14861        0.26159
H         -1.43633       -3.27252        0.20605
H         -3.43054       -1.76419       -0.08408
H         -0.60088        2.34804       -1.31978
C          2.73318       -0.37637       -0.28766
N          3.72362       -0.90824       -0.55293
