26
13182761_b3lyp_5.log	Energy: -548109.9974324
C          4.46809        0.40121        0.00007
C          4.42400       -0.99617        0.00010
C          3.20104       -1.65552        0.00009
C          2.01046       -0.92158        0.00007
C          2.05420        0.48368       -0.00009
C          3.29010        1.13836       -0.00002
C          0.81181        1.30430       -0.00053
O          0.85166        2.51965        0.00058
C         -0.50276        0.58270       -0.00012
C         -0.54242       -0.82124        0.00003
C          0.71449       -1.64464        0.00039
O          0.65192       -2.86072       -0.00064
C         -1.75868       -1.50194        0.00005
C         -2.95716       -0.78684        0.00004
C         -2.93520        0.61243        0.00002
C         -1.71857        1.30153       -0.00005
C         -4.21132       -1.47824        0.00013
N         -5.22320       -2.03427        0.00020
H          5.42372        0.91257        0.00007
H          5.34528       -1.56709        0.00017
H          3.14370       -2.73684        0.00020
H          3.30357        2.22108       -0.00013
H         -1.75129       -2.58435        0.00018
H         -3.86295        1.16971        0.00002
C         -1.80624        2.73359       -0.00016
N         -2.04563        3.86335       -0.00024
