26
13182761_b3lyp_0.log	Energy: -548115.4222034
C          3.69205        1.02642       -0.00005
C          3.69203       -0.38000       -0.00002
C          2.48418       -1.08171        0.00002
C          1.27594       -0.38421        0.00003
C          1.27661        1.02106        0.00000
C          2.49041        1.71628       -0.00003
C          0.00001        1.79641        0.00004
O          0.00003        3.01422        0.00009
C         -1.27657        1.02109        0.00001
C         -1.27597       -0.38419        0.00003
C         -0.00002       -1.16175        0.00005
O          0.00002       -2.37858        0.00009
C         -2.48423       -1.08165        0.00001
C         -3.69207       -0.37994       -0.00002
C         -3.69205        1.02647       -0.00005
C         -2.49040        1.71629       -0.00003
C         -4.93492       -1.09131       -0.00004
N         -5.94156       -1.65747       -0.00005
H          4.63387        1.56088       -0.00009
H          2.46734       -2.16408        0.00004
H          2.46876        2.79877       -0.00005
H         -2.46740       -2.16401        0.00003
H         -4.63384        1.56097       -0.00008
H         -2.46877        2.79878       -0.00004
C          4.93487       -1.09139       -0.00004
N          5.94163       -1.65733       -0.00005
