15
13839673_b3lyp_1.log	Energy: -402415.0916431
C          1.47954        1.89525       -0.00002
C          2.43250        0.94606       -0.00009
C          2.15260       -0.51671       -0.00010
O          3.03378       -1.34593        0.00004
C          0.69461       -0.84810       -0.00001
N          0.18314       -2.05342        0.00006
O         -1.19075       -1.86931       -0.00003
C         -1.47429       -0.54617       -0.00002
C         -0.30555        0.16428        0.00009
C          0.01824        1.60297        0.00025
O         -0.81837        2.48355       -0.00005
H          1.73373        2.94974       -0.00008
H          3.48586        1.20495       -0.00018
C         -2.83726       -0.17017       -0.00003
N         -3.95161        0.12977       -0.00005
