21
141161619_b3lyp_prop_0.log	Energy: -430862.0220314
C         -1.57004        0.75089       -0.00001
C         -1.09828       -0.51284       -0.00003
C          0.33740       -0.82624       -0.00049
C          1.26559        0.38763       -0.00009
C          0.76509        1.64960        0.00003
C         -0.67723        1.93500       -0.00011
C         -3.05825        0.76297        0.00019
C         -3.50308       -0.50006        0.00034
C         -2.31284       -1.43337        0.00026
H          1.42035        2.51259        0.00017
H         -3.63582        1.67634        0.00021
O          0.78296       -1.95408       -0.00125
O         -1.12724        3.07172       -0.00021
O         -2.33957       -2.63589        0.00049
H         -4.52235       -0.85719        0.00057
C          2.65379        0.12015       -0.00006
C          3.83352       -0.13786       -0.00006
C          5.25061       -0.45692        0.00037
H          5.72630       -0.10788        0.92184
H          5.40608       -1.53615       -0.07676
H          5.75863        0.02458       -0.84042
