21
141161619_b3lyp_prop_1.log	Energy: -430861.4914301
C          0.89941       -0.87674       -0.00002
C          1.54220        0.30844        0.00001
C          0.81424        1.58942       -0.00002
C         -0.66722        1.48054        0.00002
C         -1.34118        0.30368        0.00002
C         -0.57636       -0.99853       -0.00002
C          1.86996       -2.00721       -0.00001
C          3.11400       -1.51231        0.00000
C          3.03489       -0.00273        0.00004
H          1.56262       -3.04326       -0.00004
O          1.35982        2.68024       -0.00012
O         -1.12359       -2.08324       -0.00008
O          3.95713        0.76940        0.00010
H          4.05267       -2.04639        0.00001
H         -1.19745        2.42573        0.00003
C         -2.75527        0.22236        0.00004
C         -3.95833        0.12458        0.00003
C         -5.40653        0.00387        0.00003
H         -5.83719        0.48352        0.88394
H         -5.83719        0.48364       -0.88382
H         -5.70927       -1.04658       -0.00004
