18
141265078_b3lyp_1.log	Energy: -369795.0808821
C         -3.36643       -0.59544        1.33034
C         -2.65788       -0.51452        0.36398
C         -1.77869       -0.42205       -0.80179
C         -0.42451        0.12857       -0.41362
C          0.66186       -0.64062       -0.16558
C          1.97497       -0.04813        0.26461
O          2.94385       -0.74902        0.47470
C          2.03133        1.42251        0.42507
C          0.96991        2.19571        0.16974
C         -0.31147        1.62215       -0.29946
O         -1.24587        2.33849       -0.60840
H         -4.00148       -0.66971        2.17937
H         -2.22980        0.24698       -1.54016
H          2.98466        1.82086        0.75334
H          0.99230        3.27498        0.27017
H         -1.66428       -1.40891       -1.25740
C          0.62035       -2.06401       -0.29078
N          0.57403       -3.21212       -0.40440
