20
141345307_b3lyp_1.log	Energy: -370590.0599835
O         -1.59668       -2.08989       -0.01279
O          0.39687        2.82815        0.00346
C         -2.03315        0.21762        0.00324
C          0.38118       -0.77322       -0.00399
C         -1.12549       -0.96750       -0.00499
C         -1.50352        1.45086        0.00617
C          0.85888        0.50691       -0.00363
C         -0.05166        1.69599        0.00209
C         -3.50501       -0.05971        0.00625
C          1.13596       -2.02306       -0.00777
C          2.46518       -2.20458        0.02600
H         -3.78757       -0.64791       -0.87096
H         -4.07525        0.86951        0.01263
H         -3.78247       -0.65691        0.87899
H          0.49748       -2.89825       -0.03712
H          2.85826       -3.21485        0.01894
H          3.18974       -1.40371        0.06175
H         -2.11938        2.34395        0.01131
C          2.24739        0.82772       -0.00885
N          3.37130        1.09655       -0.01256
