22
141333781_b3lyp_prop_1.log	Energy: -407713.7942663
C          0.55474       -1.39724        0.54833
C          1.41914       -0.15636        0.94028
O          0.59440        1.03802        0.60367
C         -0.61514        0.59130        0.24989
C         -0.75987       -0.74960        0.20795
C         -2.01617       -1.37185       -0.18233
O         -2.17675       -2.58339       -0.25297
C         -3.13876       -0.43248       -0.50467
C         -2.99803        0.89898       -0.45869
C         -1.71345        1.54604       -0.07591
O         -1.57646        2.75183       -0.03310
H          0.97760       -1.92887       -0.30764
H          1.54880       -0.10274        2.02434
H         -4.07384       -0.90558       -0.78389
H         -3.80785        1.58010       -0.69510
H          0.47883       -2.10722        1.37402
C          2.70576       -0.06433        0.27810
C          3.78488       -0.01085       -0.25274
C          5.08507        0.06842       -0.90306
H          5.89285        0.08096       -0.16620
H          5.24549       -0.78287       -1.57025
H          5.15957        0.98233       -1.49911
