24
141345307_b3lyp_prop_1.log	Energy: -385173.9216226
O          2.45450        1.75660        0.00000
O         -0.54414       -2.62205       -0.00002
C          2.37617       -0.58729        0.00002
C          0.23942        0.89735       -0.00000
C          1.73998        0.76634        0.00001
C          1.59473       -1.67673        0.00002
C         -0.52611       -0.24177       -0.00000
C          0.12327       -1.60204       -0.00000
C          3.87350       -0.63291       -0.00000
C         -0.22747        2.28230       -0.00002
C         -1.48342        2.75378        0.00001
H          4.27448       -0.11392       -0.87476
H          4.23094       -1.66322        0.00032
H          4.27455       -0.11330        0.87435
H          0.58623        2.99867       -0.00004
H         -1.64761        3.82557       -0.00001
H         -2.35771        2.12024        0.00005
H          2.00327       -2.68201        0.00003
C         -1.93904       -0.27277       -0.00001
C         -3.14067       -0.40179        0.00000
C         -4.58519       -0.55659        0.00001
H         -4.91223       -1.11434        0.88268
H         -5.09346        0.41194        0.00059
H         -4.91234       -1.11332       -0.88326
