26
14289169_b3lyp_prop_0.log	Energy: -385949.5302138
C         -0.47364        2.91812        0.87662
C         -0.37369        2.13236       -0.44617
C          0.18870        0.75135       -0.25331
C         -0.58700       -0.35635       -0.09084
C          0.04401       -1.70761        0.12091
O         -0.63374       -2.71064        0.25859
C          1.51732       -1.78425        0.15906
C          2.30562       -0.70856        0.00830
C          1.67410        0.63210       -0.21188
O          2.38181        1.61854       -0.35900
C          3.80223       -0.75691        0.04089
H         -1.12365        2.40450        1.58938
H         -0.88957        3.91213        0.69286
H          0.51054        3.04433        1.33236
H         -1.36417        2.05257       -0.89847
H          0.27394        2.67999       -1.13436
H          1.92149       -2.77877        0.31784
H          4.19091       -0.10826        0.83070
H          4.15669       -1.77493        0.20662
H          4.21983       -0.37991       -0.89670
C         -2.00481       -0.32002       -0.10990
C         -3.21224       -0.32546       -0.11498
C         -4.66591       -0.34911       -0.12171
H         -5.05138       -0.25625       -1.14170
H         -5.03994       -1.28815        0.29530
H         -5.07743        0.47554        0.46760
