25
14642912_b3lyp_prop_0.log	Energy: -409069.6399517
C         -3.85215        0.32132        0.95631
C         -2.99393        0.85853        0.08815
C         -1.56001        0.53141       -0.01925
C         -0.99420       -0.70750        0.01245
C          0.49844       -0.85664        0.09463
O          1.00428       -1.95106        0.25597
C          1.36574        0.37053       -0.01898
C          0.77920        1.57805       -0.15908
C         -0.68060        1.73989       -0.18964
O         -1.16826        2.84923       -0.35838
C         -1.70400       -2.00296       -0.01313
C         -2.68060       -2.32854       -0.85992
H         -3.56978       -0.47253        1.63790
H         -4.87560        0.67409        1.01058
H         -3.31470        1.69323       -0.52633
H          1.35736        2.48907       -0.25742
H         -1.29829       -2.76258        0.64707
H         -3.10849       -3.32437       -0.85480
H         -3.08134       -1.62483       -1.58051
C          2.76911        0.18627        0.02358
C          3.96283        0.01048        0.05685
C          5.39868       -0.21014        0.09765
H          5.84965        0.31355        0.94583
H          5.62629       -1.27507        0.19398
H          5.87576        0.15989       -0.81476
