18
15269886_b3lyp_1.log	Energy: -393130.0576163
C         -3.31902       -0.66948        0.11893
C         -1.82422       -0.64963        0.05416
C         -1.05584       -1.75192        0.11737
C          0.41121       -1.71642        0.02864
O          1.08978       -2.72354        0.03791
C          1.06034       -0.35556       -0.05562
C          0.31873        0.77680       -0.08596
C         -1.18095        0.68755       -0.15469
O         -1.85004        1.66283       -0.42330
C          0.98093        2.12605       -0.04487
O          0.48557        3.08725        0.48113
H         -3.69212       -1.68555        0.24757
H         -3.74617       -0.24010       -0.79106
H         -3.67437       -0.04891        0.94652
H          1.98898        2.16330       -0.49889
H         -1.48309       -2.74324        0.22512
C          2.49037       -0.33849       -0.05655
N          3.64502       -0.33017       -0.06053
