16
15699186_b3lyp_2.log	Energy: -392375.3146230
C         -2.71234       -0.47046       -0.00007
C         -2.56725        0.86404       -0.00002
C         -1.23729        1.54471        0.00003
O         -1.11973        2.75369       -0.00002
C         -0.11073        0.59954        0.00004
C         -0.22680       -0.76719       -0.00002
C         -1.55465       -1.41444       -0.00002
O         -1.70897       -2.62062        0.00003
C          1.09707       -1.28635        0.00006
C          1.91434       -0.18702       -0.00003
O          1.18193        0.97372        0.00012
H         -3.69025       -0.93899       -0.00011
H         -3.42057        1.53319       -0.00004
H          1.40484       -2.31936        0.00006
C          3.32253       -0.06834       -0.00006
N          4.47584       -0.00230       -0.00006
