16
15699186_b3lyp_1.log	Energy: -392375.3053239
C          1.45533        1.92704       -0.00003
C          2.42236        0.99666       -0.00000
C          2.14220       -0.46981        0.00001
O          3.02309       -1.30716        0.00003
C          0.70663       -0.77793        0.00000
C         -0.30195        0.14406       -0.00006
C         -0.00102        1.59135       -0.00001
O         -0.85765        2.45248        0.00003
C         -1.52601       -0.60976        0.00003
C         -1.13893       -1.92612       -0.00005
O          0.20740       -2.03715        0.00002
H          1.68099        2.98762       -0.00005
H         -1.69939       -2.84604       -0.00007
H          3.47389        1.26134       -0.00000
C         -2.86677       -0.14652        0.00003
N         -3.96988        0.19398        0.00000
