19
15736817_b3lyp_2.log	Energy: -417058.6329531
C          4.13782       -0.64762       -0.00001
C          2.65895       -0.53038       -0.00001
C          1.64360       -1.44722        0.00014
C          0.43521       -0.69199       -0.00000
C          0.80138        0.62965        0.00003
O          2.14782        0.74190       -0.00014
C         -0.11569        1.75963       -0.00004
O          0.20486        2.93450        0.00007
C         -1.55554        1.34808        0.00002
C         -1.96056        0.06054       -0.00001
C         -0.97739       -1.09625        0.00001
O         -1.35487       -2.24796       -0.00006
H          4.56696       -0.16579        0.88306
H          4.56698       -0.16556       -0.88293
H          4.42764       -1.69839       -0.00013
H          1.74279       -2.52045        0.00026
H         -2.26714        2.16578        0.00005
C         -3.34954       -0.27416       -0.00001
N         -4.47560       -0.52926       -0.00000
