19
15736817_b3lyp_0.log	Energy: -417059.9651795
C          2.65250       -2.13642        0.00011
C          1.48968       -1.21953        0.00006
C          1.38455        0.15590       -0.00009
C         -0.02254        0.44455        0.00015
C         -0.65357       -0.76614       -0.00024
O          0.25124       -1.77733        0.00010
C         -2.10410       -0.97001       -0.00074
O         -2.64710       -2.05879        0.00022
C         -2.87266        0.31133       -0.00004
C         -2.28471        1.51726        0.00017
C         -0.80120        1.70023        0.00052
O         -0.29225        2.80376       -0.00017
H          2.63423       -2.78084       -0.88335
H          2.63392       -2.78114        0.88335
H          3.57957       -1.56362        0.00035
H         -3.95105        0.19765        0.00004
H         -2.86042        2.43616        0.00031
C          2.48201        1.05270       -0.00012
N          3.40698        1.74448       -0.00008
