23
15736817_b3lyp_prop_1.log	Energy: -431643.5419909
C         -4.36660       -1.38210       -0.00013
C         -3.09258       -0.62035       -0.00003
C         -2.79729        0.71523       -0.00003
C         -1.37468        0.80140        0.00000
C         -0.90657       -0.48487        0.00003
O         -1.94012       -1.36107        0.00001
C          0.49285       -0.89002        0.00009
O          0.87849       -2.04151        0.00019
C          1.45648        0.29364        0.00003
C          1.00120        1.57218       -0.00000
C         -0.43575        1.93760        0.00001
O         -0.79912        3.10340        0.00004
H         -4.43847       -2.02398        0.88263
H         -4.43877       -2.02327       -0.88337
H         -5.21150       -0.69314        0.00028
H          1.69258        2.40654       -0.00003
H         -3.50082        1.53190       -0.00004
C          2.83659       -0.02213        0.00003
C          4.00711       -0.31761        0.00001
C          5.41396       -0.68168       -0.00009
H          5.92493       -0.26494        0.87300
H          5.53419       -1.76810        0.02014
H          5.91549       -0.29933       -0.89418
