21
212470_b3lyp_prop_2.log	Energy: -428481.6126776
C         -3.44918        0.18578        0.00132
C         -2.94886        1.43031        0.00077
C         -1.49150        1.71387       -0.00017
O         -1.07149        2.84999       -0.00047
C         -0.57158        0.50904       -0.00074
N          0.73890        0.72810       -0.00159
C          1.53224       -0.35613       -0.00203
N          1.11242       -1.64217       -0.00154
C         -0.19791       -1.83868       -0.00071
C         -1.11562       -0.78082       -0.00021
C         -2.58189       -1.01744        0.00081
O         -3.05887       -2.13976        0.00150
H         -0.55250       -2.86481       -0.00037
H         -4.51661       -0.00686        0.00212
H         -3.58811        2.30663        0.00110
C          2.94072       -0.13411       -0.00189
C          4.13184        0.05273       -0.00156
C          5.56664        0.27983        0.00215
H          5.80654        1.28105       -0.36546
H          5.96538        0.18729        1.01696
H          6.07944       -0.45296       -0.62700
