21
212470_b3lyp_prop_0.log	Energy: -428482.9086064
C         -1.30599        0.31326        0.00001
C         -0.73559        1.54480        0.00006
C          0.71760        1.78372       -0.00003
O          1.17252        2.90972       -0.00015
C          1.60723        0.56111        0.00002
N          2.92929        0.73913        0.00008
C          3.67144       -0.36614        0.00011
N          3.23483       -1.63357        0.00008
C          1.91487       -1.79833        0.00001
C          1.03204       -0.71261       -0.00002
C         -0.44254       -0.92300       -0.00009
O         -0.92474       -2.03691       -0.00022
H         -1.34868        2.43856        0.00012
H          4.74825       -0.22754        0.00018
H          1.53024       -2.81308       -0.00002
C         -2.70789        0.12053        0.00000
C         -3.90045       -0.06727       -0.00004
C         -5.33474       -0.29769        0.00004
H         -5.80354        0.17102       -0.87022
H         -5.55733       -1.36756       -0.02532
H         -5.79582        0.12693        0.89672
