17
212470_b3lyp_0.log	Energy: -413896.0097957
C          1.34240        1.41239       -0.00003
C          1.78875        0.13900       -0.00001
C          0.85311       -1.04212        0.00003
O          1.27094       -2.17245        0.00007
C         -0.62306       -0.71641       -0.00001
N         -1.47672       -1.74045       -0.00002
C         -2.77066       -1.42696        0.00011
N         -3.30342       -0.19610       -0.00006
C         -2.44328        0.81688       -0.00006
C         -1.05813        0.61155       -0.00000
C         -0.10152        1.74856        0.00002
O         -0.46712        2.90951        0.00007
H          2.02378        2.25556       -0.00006
H         -3.47101       -2.25618       -0.00029
H         -2.84496        1.82511       -0.00006
C          3.18876       -0.14953       -0.00003
N          4.32348       -0.36075       -0.00005
