21
212470_b3lyp_prop_3.log	Energy: -428479.4203553
C          1.36302       -2.27532        0.00011
C          2.56113       -1.67719        0.00014
C          2.70190       -0.20539       -0.00003
O          3.79106        0.32541        0.00001
C          1.41749        0.60464       -0.00000
N          1.55511        1.92904       -0.00001
C          0.42132        2.63024       -0.00004
N         -0.82033        2.15444       -0.00003
C         -0.97148        0.81499       -0.00002
C          0.16703       -0.03350       -0.00001
C          0.08251       -1.52289       -0.00000
O         -0.97387       -2.12942       -0.00033
H          1.25540       -3.35459        0.00016
H          3.48965       -2.23755        0.00022
H          0.52115        3.71186       -0.00006
C         -2.30960        0.34006        0.00005
C         -3.46800        0.00440        0.00010
C         -4.84770       -0.44518        0.00007
H         -5.37497       -0.07251        0.88330
H         -5.37525       -0.07157       -0.88257
H         -4.90280       -1.53710       -0.00048
