21
212470_b3lyp_prop_1.log	Energy: -428482.8527731
C         -0.73773        1.54733       -0.00002
C         -1.30529        0.31427       -0.00008
C         -0.45019       -0.93232       -0.00057
O         -0.93936       -2.03546       -0.00138
C          1.04912       -0.72509       -0.00006
N          1.82245       -1.81301        0.00029
C          3.13630       -1.59998        0.00062
N          3.76339       -0.41501        0.00050
C          2.98170        0.66149        0.00016
C          1.58640        0.56366       -0.00006
C          0.71466        1.77157       -0.00018
O          1.18504        2.89865       -0.00040
H          3.77065       -2.48105        0.00094
H          3.45863        1.63630        0.00008
H         -1.34964        2.44185        0.00013
C         -2.70727        0.12321        0.00012
C         -3.89980       -0.06479        0.00035
C         -5.33354       -0.29815        0.00056
H         -5.79655        0.13194        0.89364
H         -5.80223        0.16317       -0.87370
H         -5.55340       -1.36873       -0.01739
