25
223813_b3lyp_prop_1.log	Energy: -409096.4302147
C          0.78839        0.82265        0.00206
C          1.66909       -0.40987        0.00070
C          1.15903       -1.65123        0.00024
C         -0.30681       -1.95899        0.00119
C         -1.18041       -0.73680        0.00052
C         -0.68338        0.51755        0.00088
C         -1.60096        1.69566        0.00008
O         -1.16480        2.83617        0.00032
C         -3.06452        1.44998       -0.00098
C         -3.55563        0.20670       -0.00127
C         -2.65397       -0.97153       -0.00059
O         -3.11318       -2.10329       -0.00089
H          1.02830        1.45411       -0.86172
H          1.83575       -2.49922       -0.00079
H         -0.56782       -2.58605       -0.86188
H         -0.56693       -2.58446        0.86574
H         -3.69251        2.33406       -0.00149
H         -4.61824       -0.00954       -0.00202
H          1.02745        1.45155        0.86798
C          3.07608       -0.17396       -0.00005
C          4.25804        0.07417       -0.00061
C          5.68768        0.35195       -0.00147
H          6.15632        0.00040       -0.92574
H          5.87998        1.42513        0.08472
H          6.18575       -0.14675        0.83550
