21
223813_b3lyp_2.log	Energy: -394508.2382532
C         -0.13238        2.18880        0.07523
C          1.26614        2.34128       -0.44565
C          2.07312        1.31732       -0.70323
C          1.66361       -0.12536       -0.47790
C          0.16740       -0.27675       -0.25254
C         -0.63119        0.77402        0.01460
C         -2.09498        0.56254        0.25323
O         -2.83219        1.50529        0.48718
C         -2.62253       -0.82172        0.20307
C         -1.82712       -1.85576       -0.09128
C         -0.38703       -1.65576       -0.38107
O          0.31783       -2.58634       -0.73394
H         -0.19335        2.55127        1.11109
H         -0.82726        2.83272       -0.47448
H          1.93927       -0.73751       -1.34486
H         -3.68171       -0.93174        0.40704
H         -2.18420       -2.87767       -0.15178
H          1.61821        3.35429       -0.61294
H          3.08172        1.47657       -1.06760
C          2.41094       -0.68415        0.66379
N          3.00661       -1.08661        1.56542
