21
223813_b3lyp_3.log	Energy: -394510.6865944
C         -1.49251       -1.82401        0.00010
C         -2.93845       -1.41820       -0.00012
C         -3.34904       -0.15253       -0.00012
C         -2.41617        1.02434        0.00011
C         -0.96434        0.63161        0.00004
C         -0.54723       -0.65308        0.00004
C          0.90360       -0.99134       -0.00006
O          1.28934       -2.14351        0.00005
C          1.89256        0.14244       -0.00003
C          1.46901        1.41832       -0.00004
C          0.02217        1.74632        0.00001
O         -0.33263        2.91385       -0.00001
H         -1.26928       -2.46230        0.86471
H         -1.26908       -2.46257       -0.86425
H         -2.60955        1.67284       -0.86422
H          2.15153        2.26017       -0.00006
H         -3.66654       -2.22338       -0.00029
H         -4.41123        0.07158       -0.00028
H         -2.60955        1.67248        0.86471
C          3.28169       -0.19146       -0.00003
N          4.40890       -0.44085       -0.00002
