25
223813_b3lyp_prop_4.log	Energy: -409095.5994079
C         -1.81814       -1.90088        0.00002
C         -3.29283       -1.61604        0.00035
C         -3.80699       -0.38843        0.00035
C         -2.97370        0.86059        0.00003
C         -1.49435        0.58849       -0.00004
C         -0.97220       -0.65517       -0.00007
C          0.50379       -0.86971       -0.00028
O          0.96904       -1.99409       -0.00065
C          1.40844        0.33976       -0.00004
C          0.85838        1.57410        0.00003
C         -0.59875        1.78239       -0.00009
O         -1.06454        2.91436       -0.00019
H         -1.54470       -2.51964       -0.86446
H         -3.22023        1.49117       -0.86409
H          1.46654        2.47090        0.00013
H         -1.54434       -2.51977        0.86429
H         -3.95305       -2.47826        0.00060
H         -4.88454       -0.25396        0.00059
H         -3.22010        1.49152        0.86393
C          2.80632        0.11272       -0.00002
C          3.99490       -0.09798        0.00002
C          5.42486       -0.35785        0.00028
H          5.89266        0.03967        0.90598
H          5.62579       -1.43156       -0.04376
H          5.90761        0.11576       -0.85973
