22
22489347_b3lyp_prop_0.log	Energy: -384408.8139499
C          1.02640       -0.66358       -0.87196
C          0.59871       -2.10789       -0.66392
C         -0.66164       -2.16545       -0.19476
C         -1.15970       -0.80132       -0.04125
C         -0.20603        0.09080       -0.41424
C         -0.43963        1.53790       -0.41179
O          0.36662        2.35617       -0.82780
C         -1.76894        1.97381        0.11775
C         -2.71166        1.10250        0.50368
C         -2.49156       -0.36820        0.44550
O         -3.35464       -1.16058        0.78353
H          1.15428       -0.48429       -1.95223
H          1.25778       -2.93969       -0.86971
H         -1.23419       -3.05143        0.04020
H         -1.92561        3.04668        0.14946
H         -3.68086        1.41984        0.87271
C          2.26941       -0.31454       -0.18477
C          3.29628       -0.04618        0.38169
C          4.53593        0.30332        1.06340
H          5.40363        0.09803        0.43005
H          4.55159        1.36666        1.31885
H          4.65218       -0.26760        1.98896
