18
22489347_b3lyp_0.log	Energy: -369837.1386645
C         -1.17612       -1.22481        0.00006
C         -2.00390        0.04192       -0.00001
C         -1.19259        1.13227        0.00006
C          0.18536        0.67267        0.00004
C          0.21929       -0.68775        0.00002
C          1.48117       -1.44117       -0.00003
O          1.52760       -2.66141        0.00000
C          2.72442       -0.61502       -0.00004
C          2.69806        0.72607       -0.00003
C          1.42137        1.49164        0.00006
O          1.39931        2.70948       -0.00003
H         -1.37976       -1.85284       -0.87532
H         -1.37974       -1.85272        0.87554
H         -1.50013        2.16804        0.00009
H          3.65395       -1.17386       -0.00007
H          3.60334        1.32315       -0.00007
C         -3.41999        0.04651       -0.00004
N         -4.57649        0.02140       -0.00006
