27
23162507_b3lyp_prop_3.log	Energy: -409861.3948197
C         -3.89066       -0.85372        0.83635
C         -2.50450       -0.64534        0.30696
C         -1.75701       -1.62163       -0.23962
C         -0.38717       -1.40073       -0.76827
O          0.24328       -2.30542       -1.29342
C          0.14829       -0.02837       -0.64487
C         -0.58240        0.97084       -0.12157
C         -1.94678        0.74905        0.40334
O         -2.60028        1.65454        0.89704
C          0.16400        2.27728       -0.10591
C          1.36492        1.98952       -1.04144
C          1.54193        0.43379       -1.04291
H         -4.60180       -0.20187        0.32133
H         -3.94215       -0.58557        1.89534
H         -4.20472       -1.89098        0.71517
H          0.48074        2.51369        0.91661
H          1.11954        2.31103       -2.05697
H          1.80758        0.06327       -2.03770
H         -2.12760       -2.63753       -0.33359
H         -0.45265        3.11388       -0.44172
H          2.27773        2.50042       -0.73761
C          2.54528       -0.04040       -0.08470
C          3.36882       -0.41965        0.70842
C          4.36705       -0.89512        1.65856
H          3.91556       -1.10436        2.63273
H          4.83771       -1.81627        1.30304
H          5.15553       -0.15174        1.80828
