27
23162507_b3lyp_prop_0.log	Energy: -409866.6340468
C         -1.39957        2.55836       -0.02673
C         -0.55653        1.32102       -0.00173
C         -1.06423        0.05597        0.00608
C         -0.15381       -1.15319        0.03691
O         -0.60127       -2.28543        0.06809
C          1.29828       -0.89505        0.02855
C          1.79781        0.35225        0.02072
C          0.92342        1.54076        0.01872
O          1.38810        2.67265        0.03283
C          3.30233        0.36236        0.06197
C          3.66336       -1.12146       -0.22606
C          2.37882       -1.94219        0.07674
H         -1.16803        3.15836       -0.91188
H         -1.17090        3.19097        0.83576
H         -2.46032        2.31436       -0.02521
H          3.64364        0.68962        1.05163
H          3.73474        1.06197       -0.65688
H          3.92330       -1.23247       -1.28181
H          4.52127       -1.46162        0.35572
H          2.20534       -2.75413       -0.63303
H          2.40434       -2.40398        1.07122
C         -2.45623       -0.22046       -0.01043
C         -3.63176       -0.49565       -0.02377
C         -5.04443       -0.84006       -0.04027
H         -5.58437       -0.32518        0.76001
H         -5.50556       -0.55522       -0.99090
H         -5.18277       -1.91636        0.09377
