27
23162507_b3lyp_prop_1.log	Energy: -409860.7910828
C          2.14825        2.99333        0.06841
C          1.80370        1.53557        0.05530
C          2.65894        0.56114        0.41444
C          2.30298       -0.87674        0.38066
O          3.11329       -1.74269        0.67647
C          0.91618       -1.20811       -0.01956
C          0.03319       -0.25057       -0.35220
C          0.42005        1.17508       -0.42331
O         -0.32161        2.02957       -0.87758
C         -1.31593       -0.83333       -0.75031
C         -1.17050       -2.32997       -0.30566
C          0.34719       -2.59309       -0.14567
H          1.46825        3.54361        0.72518
H          2.02578        3.42532       -0.92839
H          3.17353        3.15136        0.40483
H         -1.39935       -0.77151       -1.84454
H         -1.67072       -2.45237        0.65631
H         -1.64959       -3.00599       -1.01459
H          0.58863       -3.22314        0.71331
H          0.77981       -3.08982       -1.02236
H          3.66981        0.78099        0.74294
C         -2.48061       -0.17170       -0.16639
C         -3.45537        0.33427        0.32692
C         -4.62472        0.97830        0.91231
H         -4.85496        0.56423        1.89828
H         -4.45872        2.05320        1.02958
H         -5.50621        0.84395        0.27864
