23
24973987_b3lyp_prop_2.log	Energy: -634321.6645315
C         -4.30172       -1.29882        0.00008
C         -3.02293       -0.51773        0.00003
C         -2.97438        0.82775        0.00006
C         -1.71544        1.61668        0.00005
O         -1.72695        2.83892        0.00010
C         -0.48445        0.82010       -0.00002
C         -0.47806       -0.56066       -0.00005
C         -1.74897       -1.31958       -0.00001
O         -1.77583       -2.53864       -0.00006
C          0.82455       -1.11327       -0.00013
C          1.80778       -0.14447       -0.00012
S          1.11536        1.47213       -0.00014
H         -4.35212       -1.95305        0.87487
H         -4.35188       -1.95358       -0.87432
H         -5.16694       -0.63513       -0.00022
H         -3.87997        1.42604        0.00010
H          1.03107       -2.17386       -0.00016
C          3.20493       -0.31976        0.00006
C          4.40489       -0.45930        0.00010
C          5.84833       -0.63465        0.00011
H          6.35686        0.32818        0.10076
H          6.16519       -1.27265        0.83038
H          6.18708       -1.09991       -0.93041
