19
24973987_b3lyp_1.log	Energy: -619735.6317372
C          3.09572       -2.00577        0.00001
C          2.09608       -0.89062       -0.00001
C          2.43569        0.41269       -0.00001
C          1.45346        1.52079        0.00004
O          1.79377        2.69247       -0.00005
C          0.04090        1.10345        0.00001
C         -0.36021       -0.21159       -0.00000
C          0.64696       -1.30081       -0.00004
O          0.32759       -2.47396        0.00003
C         -1.78757       -0.34299        0.00001
C         -2.40817        0.88794       -0.00003
S         -1.29669        2.20091        0.00003
H          2.95428       -2.64708       -0.87427
H          2.95449       -2.64685        0.87448
H          4.11508       -1.61933       -0.00015
H         -3.47159        1.07420       -0.00005
H          3.47409        0.72765       -0.00002
C         -2.52925       -1.55962       -0.00000
N         -3.19310       -2.50457       -0.00001
