19
24973987_b3lyp_0.log	Energy: -619735.9885014
C         -2.72317        1.79287        0.00007
C         -1.50580        0.92656       -0.00005
C         -1.53233       -0.43157       -0.00005
C         -0.29012       -1.28771       -0.00010
O         -0.35582       -2.50140       -0.00008
C          0.96727       -0.54058       -0.00006
C          1.04330        0.83673       -0.00008
C         -0.18264        1.65468       -0.00026
O         -0.15519        2.87241        0.00007
C          2.38054        1.31848        0.00006
C          3.28517        0.29244        0.00002
S          2.53474       -1.26899        0.00009
H         -2.71156        2.45140       -0.87309
H         -2.71161        2.45105        0.87352
H         -3.64036        1.20684       -0.00005
H          2.64104        2.36738        0.00008
H          4.36292        0.35984        0.00003
C         -2.76943       -1.14854        0.00003
N         -3.77787       -1.71157        0.00011
