21
265508_b3lyp_2.log	Energy: -428515.8888362
C          4.40077       -0.02503       -0.00002
C          2.91130       -0.21775        0.00001
C          2.02697        0.86678       -0.00008
C          0.65770        0.62497       -0.00008
C          0.20350       -0.70066        0.00007
C          1.16455       -1.71960        0.00008
N          2.47361       -1.49099        0.00007
C         -1.24055       -1.03153        0.00030
O         -1.66354       -2.16920       -0.00027
C         -2.19350        0.13823        0.00002
C         -1.75666        1.41427       -0.00008
C         -0.31500        1.75891       -0.00037
O          0.03908        2.92335        0.00025
H          4.83851       -0.50627        0.87865
H          4.67531        1.03035       -0.00058
H          4.83862       -0.50728       -0.87806
H         -2.44316        2.25325       -0.00009
H          2.38800        1.88767       -0.00020
H          0.84241       -2.75574        0.00022
C         -3.59086       -0.16218        0.00003
N         -4.72409       -0.38239        0.00007
