29
2764161_b3lyp_1.log	Energy: -572788.3798401
C         -4.25209        1.40131        0.00015
C         -4.35490        0.01405        0.00016
C         -3.20492       -0.78786        0.00007
C         -1.92914       -0.18262       -0.00003
C         -1.84368        1.22114       -0.00002
C         -3.00128        2.00365        0.00006
C         -0.52166        1.92755       -0.00009
O         -0.46606        3.14496       -0.00013
C          0.70633        1.09111       -0.00008
C          0.62484       -0.31077       -0.00011
C         -0.68940       -1.01855       -0.00016
O         -0.74722       -2.23388       -0.00032
C          1.79257       -1.07355       -0.00010
C          3.04433       -0.45973       -0.00005
C          3.11928        0.93755       -0.00002
C          1.96048        1.70510       -0.00003
C          4.28117       -1.34932       -0.00006
C          5.55322       -0.63332        0.00019
N          6.55664       -0.06638        0.00036
H         -5.15052        2.00691        0.00022
H         -2.89224        3.08092        0.00006
H          1.69649       -2.15374       -0.00013
H          4.08645        1.42680        0.00003
H          2.01028        2.78684       -0.00002
H          4.26209       -2.00662        0.87590
H          4.26227       -2.00633       -0.87625
H         -5.32589       -0.46540        0.00025
C         -3.42119       -2.20597        0.00010
N         -3.76043       -3.31029        0.00016
