22
388306_b3lyp_prop_2.log	Energy: -418418.3909982
C         -3.75881       -0.41901        0.00080
C         -2.97212        0.72195        0.00025
C         -1.58285        0.57508       -0.00013
C         -1.04680       -0.72023       -0.00007
C          0.44810       -0.92806       -0.00080
O          0.94433       -2.02976       -0.00237
C          1.31263        0.31454       -0.00006
C          0.75345        1.54969       -0.00006
C         -0.69762        1.77652       -0.00047
O         -1.15990        2.90817       -0.00056
N         -1.80295       -1.82221        0.00048
C         -3.12449       -1.66623        0.00098
H          1.36818        2.44225        0.00016
H         -3.71206       -2.58011        0.00155
H         -4.84054       -0.35754        0.00112
H         -3.39656        1.71876        0.00011
C          2.71443        0.11690        0.00022
C          3.90655       -0.07315        0.00048
C          5.33986       -0.31102        0.00091
H          5.79954        0.08722        0.91037
H          5.55676       -1.38119       -0.05081
H          5.81592        0.17693       -0.85476
