22
388306_b3lyp_prop_3.log	Energy: -418418.2776543
C          3.25447       -1.60087       -0.00005
C          1.88598       -1.81929        0.00001
C          1.03185       -0.71266        0.00002
C          1.60106        0.56960       -0.00001
C          0.70342        1.78100        0.00003
O          1.14124        2.91525        0.00007
C         -0.75187        1.53904        0.00001
C         -1.31710        0.30723        0.00000
C         -0.44630       -0.92154        0.00006
O         -0.92746       -2.03716        0.00014
N          2.91948        0.78297       -0.00006
C          3.71900       -0.28137       -0.00008
H          4.78585       -0.07588       -0.00013
H          3.95610       -2.42640       -0.00006
H          1.46018       -2.81544        0.00003
H         -1.36607        2.43206       -0.00000
C         -2.71968        0.10869       -0.00002
C         -3.91208       -0.07869       -0.00005
C         -5.34677       -0.30980       -0.00007
H         -5.81250        0.13432        0.88470
H         -5.81307        0.13789       -0.88274
H         -5.56902       -1.38015       -0.00215
