22
4055_b3lyp_0.log	Energy: -418454.6161384
C         -2.54441        1.95802        0.00011
C         -1.41915        0.97534        0.00004
C         -1.57875       -0.37262       -0.00005
C         -0.42799       -1.33475       -0.00036
O         -0.62848       -2.53353        0.00007
C          0.94187       -0.75580       -0.00009
C          2.04678       -1.61016       -0.00005
C          3.33257       -1.07975        0.00005
C          3.52211        0.30464        0.00012
C          2.42622        1.16064        0.00010
C          1.13095        0.63528        0.00003
C         -0.03351        1.55911        0.00016
O          0.10399        2.77013       -0.00031
H         -3.51515        1.46570        0.00015
H         -2.46697        2.61228       -0.87285
H         -2.46686        2.61225        0.87308
H          1.87767       -2.67980       -0.00015
H          4.18947       -1.74348        0.00006
H          4.52594        0.71344        0.00019
H          2.55199        2.23622        0.00018
C         -2.88169       -0.96443        0.00004
N         -3.94146       -1.42322        0.00009
