19
45079186_b3lyp_prop_0.log	Energy: -359704.8963200
C         -0.12045        3.23889       -0.00286
C          0.21554        2.08205       -0.00159
C          0.63302        0.72976       -0.00052
C         -0.25730       -0.31465       -0.00097
C          0.24106       -1.73557       -0.00133
O         -0.52786       -2.67838       -0.00351
C          1.70606       -1.95450        0.00097
C          2.56905       -0.93370        0.00214
C          2.11123        0.47630        0.00130
O          2.91661        1.38898        0.00225
H         -0.41386        4.26044       -0.00388
H          2.02268       -2.99158        0.00134
H          3.64431       -1.07361        0.00367
C         -1.65598       -0.13193       -0.00152
C         -2.85702       -0.00523       -0.00076
C         -4.30149        0.14391        0.00250
H         -4.68161        0.17791        1.02829
H         -4.60301        1.06789       -0.49866
H         -4.78084       -0.69788       -0.50478
