22
56972288_b3lyp_prop_2.log	Energy: -407700.3156980
C         -3.86835       -2.27873        0.07317
C         -2.78531       -1.57949        0.37919
O         -2.54793       -0.36572       -0.24624
C         -1.38670        0.31044       -0.09069
C         -1.41416        1.65558       -0.03992
C         -0.17883        2.44722        0.03605
O         -0.20700        3.66975        0.09603
C          1.10907        1.72283        0.05636
C          1.18072        0.37440       -0.01092
C         -0.08272       -0.44092       -0.13082
O         -0.05259       -1.64417       -0.27718
H         -4.56065       -1.95001       -0.69127
H         -4.06729       -3.20472        0.59398
H         -2.06363       -1.87113        1.12899
H         -2.35313        2.19534       -0.05421
H          1.99965        2.33523        0.13001
C          2.40273       -0.34235        0.01021
C          3.43350       -0.96982        0.02875
C          4.67192       -1.73020        0.04749
H          5.33774       -1.41042       -0.75947
H          5.20199       -1.58863        0.99404
H          4.47426       -2.79826       -0.07620
