28
599944_b3lyp_prop_0.log	Energy: -433761.8815688
C          1.38059        0.45267        2.16061
C          1.04026        0.62398        0.64902
C          0.94674        2.11489        0.36169
C         -0.13599        2.73961       -0.08586
C         -1.42209        2.04221       -0.39318
C         -1.36445        0.55946       -0.16247
C         -0.27444       -0.09171        0.30300
C         -0.32923       -1.57901        0.49330
O          0.60806       -2.21551        0.94485
C         -1.57739       -2.29633        0.12637
C         -2.65109       -1.64718       -0.33049
C         -2.62367       -0.17836       -0.49757
O         -3.60817        0.41889       -0.90470
H          0.55758        0.83478        2.76987
H          2.27864        1.02961        2.39292
H          1.56297       -0.59209        2.40247
H          1.85991        2.66789        0.55700
H         -0.10746        3.81259       -0.25055
H         -2.24564        2.46292        0.19844
H         -1.72497        2.22690       -1.43174
H         -1.55125       -3.37102        0.26864
H         -3.57823       -2.14273       -0.59615
C          2.13067        0.08132       -0.18307
C          3.03604       -0.30546       -0.87666
C          4.12548       -0.80493       -1.70600
H          4.07363       -1.89323       -1.80467
H          4.09006       -0.37328       -2.71055
H          5.09702       -0.55627       -1.26905
