35
616789_b3lyp_prop_2.log	Energy: -554153.0501109
C         -2.34470       -2.49494        1.00664
C         -2.03098       -1.78086       -0.32138
C         -1.48753       -0.38028       -0.13026
C         -0.11072       -0.06878       -0.01084
C          0.30333        1.27934        0.11801
C         -0.63987        2.30490        0.17856
C         -1.98657        2.01254        0.09012
C         -2.42159        0.68716       -0.07491
C          1.74069        1.68348        0.16803
O          2.06290        2.85245        0.31678
C          2.76327        0.61959        0.00382
C          4.11778        0.96403       -0.05201
C          5.08030       -0.02538       -0.20596
C          4.69627       -1.36703       -0.29518
C          3.35284       -1.71561       -0.22794
C          2.37573       -0.72443       -0.08465
C          0.93949       -1.13827        0.00386
O          0.67031       -2.32548        0.10069
H         -1.43901       -2.63011        1.59921
H         -2.76763       -3.48364        0.80820
H         -3.07081       -1.92925        1.59615
H         -1.32655       -2.38411       -0.88920
H         -2.95190       -1.70213       -0.90373
H          4.38875        2.00951        0.02724
H          6.12965        0.24265       -0.25437
H          5.44848       -2.13873       -0.41386
H          3.03671       -2.74957       -0.28355
H         -0.28975        3.32321        0.28812
H         -2.72507        2.80380        0.13465
C         -3.82586        0.45201       -0.18409
C         -5.02083        0.29910       -0.26532
C         -6.46001        0.10403       -0.36324
H         -6.86129        0.58708       -1.25925
H         -6.71069       -0.95933       -0.41267
H         -6.97276        0.53134        0.50368
