51
6699_b3lyp_prop_2.log	Energy: -889254.8341724
O          3.33572        0.24443       -0.89041
O         -4.05167       -0.62395       -0.12774
O          1.30387        2.00800       -0.53588
O         -1.97015       -1.92567        0.91303
C          1.09351       -0.34120       -0.21103
C         -1.80980        0.17079       -0.21456
C          0.19719       -1.34808        0.19685
C         -0.91334        1.20307       -0.56248
C          0.57482        1.03801       -0.44199
C         -1.27481       -1.09842        0.34984
C          2.45352       -0.66404       -0.37138
C         -3.19529        0.40356       -0.37885
C          0.66255       -2.63551        0.47074
C         -1.37730        2.43371       -1.02455
C          2.91859       -1.97379       -0.12958
C         -3.64878        1.63468       -0.86238
C          2.00085       -2.94558        0.30539
C         -2.74296        2.64131       -1.17471
C          4.13720        1.01566       -0.07002
C         -5.40105       -0.39266        0.09470
C          4.10211        0.95593        1.32014
C         -5.82629        0.33171        1.20668
C          5.01020        1.88288       -0.72487
C         -6.31541       -0.99025       -0.76654
C          4.95751        1.77597        2.05687
C         -7.19176        0.47063        1.44331
C          5.85624        2.69398        0.02247
C         -7.67967       -0.84973       -0.51554
C          5.83679        2.64542        1.41771
C         -8.12133       -0.11691        0.58460
H         -4.71060        1.79239       -0.99838
H          2.35985       -3.94955        0.49643
H         -3.11075        3.59006       -1.54895
H          3.41880        0.28509        1.82557
H         -5.09540        0.76760        1.87719
H          5.00565        1.91227       -1.80742
H         -5.95084       -1.56149       -1.61155
H          4.92851        1.73081        3.13992
H         -7.52893        1.02983        2.30871
H          6.53223        3.37071       -0.48836
H         -8.39624       -1.31585       -1.18218
H          6.49647        3.28056        1.99703
H         -9.18240       -0.01009        0.77716
H         -0.04897       -3.38180        0.79965
H         -0.65611        3.20392       -1.26327
C          4.28716       -2.30516       -0.33012
C          5.44662       -2.59658       -0.49256
C          6.84934       -2.92651       -0.69094
H          7.00467       -3.40707       -1.66172
H          7.46750       -2.02504       -0.65813
H          7.20585       -3.61201        0.08323
