32
6773_b3lyp_prop_5.log	Energy: -529482.3941287
C          5.43063       -1.86660        0.00011
C          4.24565       -0.93406        0.00002
C          2.94016       -1.42200       -0.00002
C          1.84212       -0.55641        0.00002
C          2.04693        0.83325        0.00010
C          3.35534        1.32900        0.00012
C          4.43455        0.45822        0.00008
C          0.90453        1.78873        0.00014
O          1.08492        2.99711        0.00023
C         -0.46915        1.21171       -0.00003
C         -1.57207        2.07233       -0.00003
C         -2.86128        1.56540       -0.00015
C         -3.08586        0.17323       -0.00038
C         -1.97897       -0.68731       -0.00028
C         -0.68101       -0.17882       -0.00012
C          0.46677       -1.13586       -0.00006
O          0.28541       -2.34239       -0.00013
H          6.05972       -1.70098       -0.87981
H          5.11596       -2.91118       -0.00130
H          6.05802       -1.70290        0.88161
H         -2.11793       -1.76066       -0.00029
H          2.74765       -2.48842       -0.00010
H          3.50060        2.40225        0.00016
H          5.44361        0.85826        0.00008
H         -1.39271        3.14033        0.00013
H         -3.71190        2.23607       -0.00002
C         -4.41238       -0.34853       -0.00084
C         -5.53585       -0.78991       -0.00084
C         -6.88825       -1.32768        0.00060
H         -7.25091       -1.47045        1.02316
H         -7.58082       -0.65199       -0.50924
H         -6.92516       -2.29629       -0.50590
