23
73507565_b3lyp_prop_1.log	Energy: -454921.1038351
C          3.88620       -1.05832        0.83565
C          2.63905       -0.33553        0.42707
C          2.47508        0.99437        0.54497
C          1.23897        1.72551        0.14284
O          1.13095        2.93313        0.25638
C          0.18562        0.85961       -0.39973
C          0.32504       -0.46947       -0.52634
C          1.53356       -1.20009       -0.14319
O          1.66025       -2.40381       -0.27059
O         -0.78639       -1.02904       -1.08151
C         -1.76092        0.05055       -1.15228
O         -1.02413        1.27493       -0.85941
H          4.62904       -0.36383        1.22900
H          4.31445       -1.59799       -0.01350
H          3.66255       -1.81177        1.59608
H         -2.11708        0.11390       -2.18146
H          3.25663        1.62793        0.95056
C         -2.84785       -0.15045       -0.20865
C         -3.78186       -0.31476        0.53207
C         -4.89575       -0.51325        1.44567
H         -5.84882       -0.49675        0.91042
H         -4.80830       -1.47576        1.95695
H         -4.91695        0.27348        2.20464
