23
73507565_b3lyp_prop_0.log	Energy: -454924.7288939
C         -1.30522        2.56273        0.01805
C         -0.48237        1.31155        0.00199
C         -1.01450        0.05590       -0.00278
C         -0.14413       -1.19369       -0.02249
O         -0.60815       -2.31417       -0.05083
C          1.29333       -0.92302       -0.01060
C          1.81463        0.31188       -0.00265
C          1.00440        1.53119       -0.01138
O          1.49178        2.64810       -0.03168
O          3.17557        0.26725       -0.05201
C          3.49533       -1.12692        0.13240
O          2.27479       -1.86781       -0.06626
H         -2.36908        2.33410        0.00973
H         -1.06166        3.18929       -0.84470
H         -1.07138        3.16078        0.90394
H          4.23219       -1.43288       -0.60829
H          3.84905       -1.28247        1.15767
C         -2.41030       -0.19202        0.00840
C         -3.59031       -0.44779        0.01686
C         -5.00828       -0.76800        0.02486
H         -5.57261       -0.05169        0.62881
H         -5.41716       -0.74681       -0.99008
H         -5.17669       -1.76820        0.43323
