31
73698_b3lyp_3.log	Energy: -539572.0118534
C          3.27495       -2.59550       -0.00025
C          2.91014       -1.13110       -0.00021
C          1.59150       -0.61825        0.00012
C          1.35957        0.79089        0.00015
C          2.44430        1.69908       -0.00016
C          3.73372        1.15886       -0.00053
C          3.95847       -0.20635       -0.00056
C          2.32031        3.20299       -0.00014
C         -0.03576        1.32460        0.00051
O         -0.27926        2.52140        0.00099
C         -1.17385        0.35738        0.00022
C         -2.47912        0.85320        0.00005
C         -3.55671       -0.03388       -0.00020
C         -3.32838       -1.42280       -0.00025
C         -2.03141       -1.90698       -0.00004
C         -0.94793       -1.02031        0.00017
C          0.44053       -1.57023        0.00042
O          0.59289       -2.78252        0.00077
H          2.87136       -3.11498        0.87058
H          4.36201       -2.69869       -0.00072
H          2.87061       -3.11514       -0.87064
H          1.77056        3.56551       -0.87042
H          1.77144        3.56554        0.87067
H          3.31672        3.64973       -0.00065
H         -4.17122       -2.10287       -0.00044
H         -1.83100       -2.97066       -0.00003
H          4.58192        1.83492       -0.00081
H          4.97857       -0.57495       -0.00085
H         -2.63487        1.92409        0.00013
C         -4.89849        0.46662       -0.00041
N         -5.98375        0.86245       -0.00059
