31
73698_b3lyp_0.log	Energy: -539571.2789663
C         -1.33537        3.32416        0.00657
C         -1.44292        1.81839        0.01167
C         -0.35295        0.91808        0.07392
C         -0.57124       -0.48791        0.08236
C         -1.87671       -1.02869        0.00913
C         -2.93988       -0.10719       -0.06606
C         -2.72027        1.27076       -0.05996
C         -2.19260       -2.50303       -0.00600
C          0.60232       -1.42115        0.17936
O          0.46101       -2.61705        0.37835
C          1.97243       -0.86182        0.02110
C          3.06076       -1.73646       -0.07179
C          4.34700       -1.23035       -0.20718
C          4.55930        0.15213       -0.23478
C          3.48440        1.02473       -0.12684
C          2.18485        0.51978       -0.00584
C          1.04484        1.46517        0.12174
O          1.25990        2.66053        0.24714
H         -0.88777        3.69805        0.92852
H         -2.33023        3.75954       -0.10601
H         -0.69878        3.68399       -0.80321
H         -3.57686        1.93176       -0.11677
H         -1.61406       -3.02794       -0.76680
H         -1.93013       -2.97072        0.94444
H         -3.25374       -2.66248       -0.19483
H          2.87486       -2.80235       -0.03544
H          5.18856       -1.90886       -0.28811
H          5.56508        0.54343       -0.33666
H          3.62585        2.09808       -0.13315
C         -4.30070       -0.55212       -0.15165
N         -5.40995       -0.86818       -0.22149
