31
73698_b3lyp_2.log	Energy: -539568.1196694
C          3.49020       -2.20422       -0.11106
C          2.87998       -0.82453       -0.08688
C          1.50018       -0.55140        0.05439
C          1.02231        0.78914        0.07505
C          1.91451        1.87742       -0.05343
C          3.27003        1.57498       -0.21401
C          3.73655        0.27103       -0.22725
C          1.51277        3.33204       -0.04559
C         -0.43627        1.05915        0.25083
O         -0.86131        2.16279        0.54528
C         -1.39775       -0.06720        0.05796
C         -2.78357        0.17006       -0.07071
C         -3.66000       -0.91502       -0.20406
C         -3.17816       -2.22124       -0.18979
C         -1.81717       -2.45760       -0.05616
C         -0.92878       -1.38365        0.05432
C          0.53319       -1.67852        0.18069
O          0.89030       -2.83333        0.35547
H          3.35831       -2.71915        0.84233
H          4.55827       -2.12697       -0.32463
H          3.02544       -2.84428       -0.86313
H          0.70204        3.53998       -0.74574
H          1.14657        3.64057        0.93539
H          2.37380        3.94954       -0.30954
H         -4.71959       -0.72130       -0.31609
H         -3.87006       -3.04964       -0.28529
H         -1.41574       -3.46281       -0.03661
H          3.97556        2.39060       -0.33079
H          4.79885        0.09019       -0.35146
C         -3.37194        1.47777       -0.10715
N         -3.98312        2.45547       -0.18047
