19
78362_b3lyp_prop_0.log	Energy: -427693.9101980
C         -1.21870       -0.38560       -0.00006
C         -0.57235       -1.57657       -0.00006
C          0.88769       -1.69666       -0.00009
O          1.45118       -2.77387       -0.00021
C          1.69227       -0.42043        0.00003
C          1.07270        0.78718        0.00000
C         -0.43009        0.89641       -0.00026
O         -0.96055        1.98215       -0.00060
C          1.79418        2.01622        0.00012
N          2.37750        3.01249        0.00024
C          3.11036       -0.55297        0.00015
N          4.25955       -0.66430        0.00026
H         -1.11624       -2.51329       -0.00004
C         -2.62598       -0.26610        0.00004
C         -3.82614       -0.13336        0.00014
C         -5.26852        0.03095        0.00031
H         -5.71091       -0.43692        0.88463
H         -5.53854        1.08999       -0.00018
H         -5.71122       -0.43781       -0.88340
