23
78494_b3lyp_prop_0.log	Energy: -361268.3826184
C          0.31474        2.83837        0.87626
C          0.30368        2.04550       -0.44622
C          0.64174        0.59469       -0.24767
C         -0.29835       -0.37999       -0.08607
C          0.10233       -1.81634        0.13022
O         -0.72524       -2.69784        0.26804
C          1.55032       -2.12995        0.17253
C          2.47261       -1.17483        0.02152
C          2.08950        0.24082       -0.20049
O          2.95534        1.09216       -0.34510
H         -0.41752        2.43616        1.58070
H          0.06587        3.88590        0.68819
H          1.30095        2.80550        1.34373
H         -0.68180        2.12145       -0.91002
H          1.03745        2.48330       -1.12666
H          1.80002       -3.17294        0.33258
H          3.53807       -1.37519        0.04762
C         -1.69265       -0.11922       -0.11164
C         -2.88543        0.06761       -0.12255
C         -4.32394        0.27746       -0.13710
H         -4.59277        1.21193        0.36382
H         -4.69811        0.32804       -1.16424
H         -4.84022       -0.54343        0.36810
